MODEL 1
REMARK VINA RESULT:    -5.943      0.000      0.000
REMARK INTER + INTRA:          -9.588
REMARK INTER:                  -8.375
REMARK INTRA:                  -1.213
REMARK UNBOUND:                -1.213
REMARK  Name = obj01
REMARK  7 active torsions:
REMARK  status: ('A' for Active; 'I' for Inactive)
REMARK    1  A    between atoms: NE_1  and  C4_10
REMARK    2  A    between atoms: C1_5  and  C2_8
REMARK    3  A    between atoms: C5_11  and  N5_12
REMARK    4  A    between atoms: N5_12  and  C10_21
REMARK    5  A    between atoms: C6_13  and  C7_15
REMARK    6  A    between atoms: C7_15  and  C8_17
REMARK    7  A    between atoms: C8_17  and  C9_19
REMARK                            x       y       z     vdW  Elec       q    Type
REMARK                         _______ _______ _______ _____ _____    ______ ____
ROOT
ATOM      1  C2  ZMR A 466      -2.229  58.474  -7.586  0.00  0.00    +0.000 C 
ATOM      2  C3  ZMR A 466      -1.769  57.215  -7.500  0.00  0.00    +0.000 C 
ATOM      3  C4  ZMR A 466      -2.198  56.166  -8.481  0.00  0.00    +0.000 C 
ATOM      4  C5  ZMR A 466      -2.840  56.749  -9.688  0.00  0.00    +0.000 C 
ATOM      5  C6  ZMR A 466      -3.810  57.881  -9.234  0.00  0.00    +0.000 C 
ATOM      6  O6  ZMR A 466      -3.098  58.870  -8.497  0.00  0.00    +0.000 OA
ENDROOT
BRANCH   3   7
ATOM      7  NE  ZMR A 466      -1.131  55.274  -8.878  0.00  0.00    +0.000 NA
ATOM      8  CZ  ZMR A 466      -1.090  54.002  -8.492  0.00  0.00    +0.000 C 
ATOM      9  NH1 ZMR A 466      -1.959  53.518  -7.598  0.00  0.00    +0.000 NA
ATOM     10  NH2 ZMR A 466      -0.202  53.197  -9.068  0.00  0.00    +0.000 NA
ENDBRANCH   3   7
BRANCH   1  11
ATOM     11  C1  ZMR A 466      -1.760  59.496  -6.635  0.00  0.00    +0.000 C 
ATOM     12  O1A ZMR A 466      -2.667  60.021  -5.807  0.00  0.00    +0.000 OA
ATOM     13  O1B ZMR A 466      -0.613  59.812  -6.657  0.00  0.00    +0.000 OA
ENDBRANCH   1  11
BRANCH   5  14
ATOM     14  C7  ZMR A 466      -4.712  58.514 -10.282  0.00  0.00    +0.000 C 
ATOM     15  O7  ZMR A 466      -4.192  59.456 -10.036  0.00  0.00    +0.000 OA
BRANCH  14  16
ATOM     16  C8  ZMR A 466      -6.121  58.261 -10.133  0.00  0.00    +0.000 C 
ATOM     17  O8  ZMR A 466      -6.184  57.719  -8.811  0.00  0.00    +0.000 OA
BRANCH  16  18
ATOM     18  C9  ZMR A 466      -6.714  57.262 -11.125  0.00  0.00    +0.000 C 
ATOM     19  O9  ZMR A 466      -6.300  57.581 -12.453  0.00  0.00    +0.000 OA
ENDBRANCH  16  18
ENDBRANCH  14  16
ENDBRANCH   5  14
BRANCH   4  20
ATOM     20  N5  ZMR A 466      -3.605  55.736 -10.399  0.00  0.00    +0.000 NA
BRANCH  20  21
ATOM     21  C10 ZMR A 466      -3.335  55.341 -11.647  0.00  0.00    +0.000 C 
ATOM     22  O10 ZMR A 466      -3.353  56.081 -12.610  0.00  0.00    +0.000 OA
ATOM     23  C11 ZMR A 466      -2.976  53.876 -11.787  0.00  0.00    +0.000 C 
ENDBRANCH  20  21
ENDBRANCH   4  20
TORSDOF 7
ENDMDL
MODEL 2
REMARK VINA RESULT:    -5.639      3.025      4.776
REMARK INTER + INTRA:          -9.159
REMARK INTER:                  -8.000
REMARK INTRA:                  -1.158
REMARK UNBOUND:                -1.213
REMARK  Name = obj01
REMARK  7 active torsions:
REMARK  status: ('A' for Active; 'I' for Inactive)
REMARK    1  A    between atoms: NE_1  and  C4_10
REMARK    2  A    between atoms: C1_5  and  C2_8
REMARK    3  A    between atoms: C5_11  and  N5_12
REMARK    4  A    between atoms: N5_12  and  C10_21
REMARK    5  A    between atoms: C6_13  and  C7_15
REMARK    6  A    between atoms: C7_15  and  C8_17
REMARK    7  A    between atoms: C8_17  and  C9_19
REMARK                            x       y       z     vdW  Elec       q    Type
REMARK                         _______ _______ _______ _____ _____    ______ ____
ROOT
ATOM      1  C2  ZMR A 466      -2.229  55.379  -8.474  0.00  0.00    +0.000 C 
ATOM      2  C3  ZMR A 466      -1.909  56.530  -7.861  0.00  0.00    +0.000 C 
ATOM      3  C4  ZMR A 466      -2.673  57.790  -8.134  0.00  0.00    +0.000 C 
ATOM      4  C5  ZMR A 466      -3.966  57.530  -8.818  0.00  0.00    +0.000 C 
ATOM      5  C6  ZMR A 466      -3.731  56.466  -9.933  0.00  0.00    +0.000 C 
ATOM      6  O6  ZMR A 466      -3.196  55.274  -9.366  0.00  0.00    +0.000 OA
ENDROOT
BRANCH   3   7
ATOM      7  NE  ZMR A 466      -2.898  58.597  -6.955  0.00  0.00    +0.000 NA
ATOM      8  CZ  ZMR A 466      -2.375  59.812  -6.817  0.00  0.00    +0.000 C 
ATOM      9  NH1 ZMR A 466      -1.495  60.295  -7.702  0.00  0.00    +0.000 NA
ATOM     10  NH2 ZMR A 466      -2.799  60.571  -5.811  0.00  0.00    +0.000 NA
ENDBRANCH   3   7
BRANCH   1  11
ATOM     11  C1  ZMR A 466      -1.489  54.145  -8.157  0.00  0.00    +0.000 C 
ATOM     12  O1A ZMR A 466      -0.427  53.860  -8.914  0.00  0.00    +0.000 OA
ATOM     13  O1B ZMR A 466      -1.875  53.462  -7.262  0.00  0.00    +0.000 OA
ENDBRANCH   1  11
BRANCH   5  14
ATOM     14  C7  ZMR A 466      -4.877  56.161 -10.885  0.00  0.00    +0.000 C 
ATOM     15  O7  ZMR A 466      -4.914  55.176 -10.388  0.00  0.00    +0.000 OA
BRANCH  14  16
ATOM     16  C8  ZMR A 466      -4.614  56.396 -12.280  0.00  0.00    +0.000 C 
ATOM     17  O8  ZMR A 466      -3.431  57.198 -12.224  0.00  0.00    +0.000 OA
BRANCH  16  18
ATOM     18  C9  ZMR A 466      -5.708  57.148 -13.034  0.00  0.00    +0.000 C 
ATOM     19  O9  ZMR A 466      -6.798  57.441 -12.160  0.00  0.00    +0.000 OA
ENDBRANCH  16  18
ENDBRANCH  14  16
ENDBRANCH   5  14
BRANCH   4  20
ATOM     20  N5  ZMR A 466      -4.472  58.748  -9.435  0.00  0.00    +0.000 NA
BRANCH  20  21
ATOM     21  C10 ZMR A 466      -5.643  59.309  -9.120  0.00  0.00    +0.000 C 
ATOM     22  O10 ZMR A 466      -6.693  58.702  -9.070  0.00  0.00    +0.000 OA
ATOM     23  C11 ZMR A 466      -5.572  60.788  -8.799  0.00  0.00    +0.000 C 
ENDBRANCH  20  21
ENDBRANCH   4  20
TORSDOF 7
ENDMDL
MODEL 3
REMARK VINA RESULT:    -5.597      2.586      4.790
REMARK INTER + INTRA:          -9.100
REMARK INTER:                  -8.186
REMARK INTRA:                  -0.915
REMARK UNBOUND:                -1.213
REMARK  Name = obj01
REMARK  7 active torsions:
REMARK  status: ('A' for Active; 'I' for Inactive)
REMARK    1  A    between atoms: NE_1  and  C4_10
REMARK    2  A    between atoms: C1_5  and  C2_8
REMARK    3  A    between atoms: C5_11  and  N5_12
REMARK    4  A    between atoms: N5_12  and  C10_21
REMARK    5  A    between atoms: C6_13  and  C7_15
REMARK    6  A    between atoms: C7_15  and  C8_17
REMARK    7  A    between atoms: C8_17  and  C9_19
REMARK                            x       y       z     vdW  Elec       q    Type
REMARK                         _______ _______ _______ _____ _____    ______ ____
ROOT
ATOM      1  C2  ZMR A 466      -2.196  57.995  -7.662  0.00  0.00    +0.000 C 
ATOM      2  C3  ZMR A 466      -3.208  58.398  -8.447  0.00  0.00    +0.000 C 
ATOM      3  C4  ZMR A 466      -4.001  57.412  -9.251  0.00  0.00    +0.000 C 
ATOM      4  C5  ZMR A 466      -3.789  56.013  -8.800  0.00  0.00    +0.000 C 
ATOM      5  C6  ZMR A 466      -2.268  55.804  -8.535  0.00  0.00    +0.000 C 
ATOM      6  O6  ZMR A 466      -1.809  56.737  -7.562  0.00  0.00    +0.000 OA
ENDROOT
BRANCH   3   7
ATOM      7  NE  ZMR A 466      -5.418  57.705  -9.288  0.00  0.00    +0.000 NA
ATOM      8  CZ  ZMR A 466      -6.046  58.027 -10.415  0.00  0.00    +0.000 C 
ATOM      9  NH1 ZMR A 466      -5.372  58.237 -11.551  0.00  0.00    +0.000 NA
ATOM     10  NH2 ZMR A 466      -7.375  58.069 -10.406  0.00  0.00    +0.000 NA
ENDBRANCH   3   7
BRANCH   1  11
ATOM     11  C1  ZMR A 466      -1.457  58.978  -6.850  0.00  0.00    +0.000 C 
ATOM     12  O1A ZMR A 466      -1.004  60.067  -7.474  0.00  0.00    +0.000 OA
ATOM     13  O1B ZMR A 466      -1.290  58.751  -5.693  0.00  0.00    +0.000 OA
ENDBRANCH   1  11
BRANCH   5  14
ATOM     14  C7  ZMR A 466      -1.781  54.396  -8.225  0.00  0.00    +0.000 C 
ATOM     15  O7  ZMR A 466      -1.528  54.796  -7.228  0.00  0.00    +0.000 OA
BRANCH  14  16
ATOM     16  C8  ZMR A 466      -0.856  53.830  -9.171  0.00  0.00    +0.000 C 
ATOM     17  O8  ZMR A 466       0.323  54.602  -8.926  0.00  0.00    +0.000 OA
BRANCH  16  18
ATOM     18  C9  ZMR A 466      -1.259  53.961 -10.639  0.00  0.00    +0.000 C 
ATOM     19  O9  ZMR A 466      -0.135  54.353 -11.425  0.00  0.00    +0.000 OA
ENDBRANCH  16  18
ENDBRANCH  14  16
ENDBRANCH   5  14
BRANCH   4  20
ATOM     20  N5  ZMR A 466      -4.217  55.075  -9.828  0.00  0.00    +0.000 NA
BRANCH  20  21
ATOM     21  C10 ZMR A 466      -5.143  54.132  -9.634  0.00  0.00    +0.000 C 
ATOM     22  O10 ZMR A 466      -6.307  54.368  -9.377  0.00  0.00    +0.000 OA
ATOM     23  C11 ZMR A 466      -4.642  52.709  -9.778  0.00  0.00    +0.000 C 
ENDBRANCH  20  21
ENDBRANCH   4  20
TORSDOF 7
ENDMDL
MODEL 4
REMARK VINA RESULT:    -5.248      2.890      5.092
REMARK INTER + INTRA:          -8.609
REMARK INTER:                  -7.603
REMARK INTRA:                  -1.006
REMARK UNBOUND:                -1.213
REMARK  Name = obj01
REMARK  7 active torsions:
REMARK  status: ('A' for Active; 'I' for Inactive)
REMARK    1  A    between atoms: NE_1  and  C4_10
REMARK    2  A    between atoms: C1_5  and  C2_8
REMARK    3  A    between atoms: C5_11  and  N5_12
REMARK    4  A    between atoms: N5_12  and  C10_21
REMARK    5  A    between atoms: C6_13  and  C7_15
REMARK    6  A    between atoms: C7_15  and  C8_17
REMARK    7  A    between atoms: C8_17  and  C9_19
REMARK                            x       y       z     vdW  Elec       q    Type
REMARK                         _______ _______ _______ _____ _____    ______ ____
ROOT
ATOM      1  C2  ZMR A 466      -2.390  57.894  -7.960  0.00  0.00    +0.000 C 
ATOM      2  C3  ZMR A 466      -2.876  59.078  -8.365  0.00  0.00    +0.000 C 
ATOM      3  C4  ZMR A 466      -3.722  59.186  -9.598  0.00  0.00    +0.000 C 
ATOM      4  C5  ZMR A 466      -4.230  57.866 -10.053  0.00  0.00    +0.000 C 
ATOM      5  C6  ZMR A 466      -3.071  56.829  -9.953  0.00  0.00    +0.000 C 
ATOM      6  O6  ZMR A 466      -2.586  56.765  -8.615  0.00  0.00    +0.000 OA
ENDROOT
BRANCH   3   7
ATOM      7  NE  ZMR A 466      -4.824  60.113  -9.463  0.00  0.00    +0.000 NA
ATOM      8  CZ  ZMR A 466      -4.841  61.288 -10.086  0.00  0.00    +0.000 C 
ATOM      9  NH1 ZMR A 466      -3.774  61.737 -10.756  0.00  0.00    +0.000 NA
ATOM     10  NH2 ZMR A 466      -5.974  61.986 -10.085  0.00  0.00    +0.000 NA
ENDBRANCH   3   7
BRANCH   1  11
ATOM     11  C1  ZMR A 466      -1.596  57.807  -6.722  0.00  0.00    +0.000 C 
ATOM     12  O1A ZMR A 466      -0.920  56.676  -6.509  0.00  0.00    +0.000 OA
ATOM     13  O1B ZMR A 466      -1.604  58.733  -5.974  0.00  0.00    +0.000 OA
ENDBRANCH   1  11
BRANCH   5  14
ATOM     14  C7  ZMR A 466      -3.301  55.439 -10.526  0.00  0.00    +0.000 C 
ATOM     15  O7  ZMR A 466      -3.798  55.220  -9.564  0.00  0.00    +0.000 OA
BRANCH  14  16
ATOM     16  C8  ZMR A 466      -2.136  54.775 -11.048  0.00  0.00    +0.000 C 
ATOM     17  O8  ZMR A 466      -2.517  54.540 -12.407  0.00  0.00    +0.000 OA
BRANCH  16  18
ATOM     18  C9  ZMR A 466      -1.785  53.448 -10.378  0.00  0.00    +0.000 C 
ATOM     19  O9  ZMR A 466      -0.874  53.665  -9.302  0.00  0.00    +0.000 OA
ENDBRANCH  16  18
ENDBRANCH  14  16
ENDBRANCH   5  14
BRANCH   4  20
ATOM     20  N5  ZMR A 466      -4.673  57.939 -11.437  0.00  0.00    +0.000 NA
BRANCH  20  21
ATOM     21  C10 ZMR A 466      -5.897  57.591 -11.845  0.00  0.00    +0.000 C 
ATOM     22  O10 ZMR A 466      -6.865  57.541 -11.114  0.00  0.00    +0.000 OA
ATOM     23  C11 ZMR A 466      -6.008  57.275 -13.323  0.00  0.00    +0.000 C 
ENDBRANCH  20  21
ENDBRANCH   4  20
TORSDOF 7
ENDMDL
MODEL 5
REMARK VINA RESULT:    -5.137      3.119      5.813
REMARK INTER + INTRA:          -8.452
REMARK INTER:                  -8.208
REMARK INTRA:                  -0.244
REMARK UNBOUND:                -1.213
REMARK  Name = obj01
REMARK  7 active torsions:
REMARK  status: ('A' for Active; 'I' for Inactive)
REMARK    1  A    between atoms: NE_1  and  C4_10
REMARK    2  A    between atoms: C1_5  and  C2_8
REMARK    3  A    between atoms: C5_11  and  N5_12
REMARK    4  A    between atoms: N5_12  and  C10_21
REMARK    5  A    between atoms: C6_13  and  C7_15
REMARK    6  A    between atoms: C7_15  and  C8_17
REMARK    7  A    between atoms: C8_17  and  C9_19
REMARK                            x       y       z     vdW  Elec       q    Type
REMARK                         _______ _______ _______ _____ _____    ______ ____
ROOT
ATOM      1  C2  ZMR A 466      -4.203  55.283  -9.673  0.00  0.00    +0.000 C 
ATOM      2  C3  ZMR A 466      -5.389  55.590 -10.224  0.00  0.00    +0.000 C 
ATOM      3  C4  ZMR A 466      -5.889  57.002 -10.245  0.00  0.00    +0.000 C 
ATOM      4  C5  ZMR A 466      -4.816  57.987  -9.951  0.00  0.00    +0.000 C 
ATOM      5  C6  ZMR A 466      -3.961  57.448  -8.766  0.00  0.00    +0.000 C 
ATOM      6  O6  ZMR A 466      -3.419  56.172  -9.094  0.00  0.00    +0.000 OA
ENDROOT
BRANCH   3   7
ATOM      7  NE  ZMR A 466      -6.557  57.360 -11.477  0.00  0.00    +0.000 NA
ATOM      8  CZ  ZMR A 466      -5.943  57.310 -12.656  0.00  0.00    +0.000 C 
ATOM      9  NH1 ZMR A 466      -4.632  57.063 -12.748  0.00  0.00    +0.000 NA
ATOM     10  NH2 ZMR A 466      -6.679  57.445 -13.756  0.00  0.00    +0.000 NA
ENDBRANCH   3   7
BRANCH   1  11
ATOM     11  C1  ZMR A 466      -3.715  53.893  -9.701  0.00  0.00    +0.000 C 
ATOM     12  O1A ZMR A 466      -2.396  53.709  -9.605  0.00  0.00    +0.000 OA
ATOM     13  O1B ZMR A 466      -4.507  53.013  -9.819  0.00  0.00    +0.000 OA
ENDBRANCH   1  11
BRANCH   5  14
ATOM     14  C7  ZMR A 466      -2.902  58.363  -8.171  0.00  0.00    +0.000 C 
ATOM     15  O7  ZMR A 466      -2.194  57.547  -8.396  0.00  0.00    +0.000 OA
BRANCH  14  16
ATOM     16  C8  ZMR A 466      -3.194  58.897  -6.867  0.00  0.00    +0.000 C 
ATOM     17  O8  ZMR A 466      -3.302  60.297  -7.139  0.00  0.00    +0.000 OA
BRANCH  16  18
ATOM     18  C9  ZMR A 466      -2.118  58.662  -5.808  0.00  0.00    +0.000 C 
ATOM     19  O9  ZMR A 466      -1.159  59.719  -5.837  0.00  0.00    +0.000 OA
ENDBRANCH  16  18
ENDBRANCH  14  16
ENDBRANCH   5  14
BRANCH   4  20
ATOM     20  N5  ZMR A 466      -5.390  59.269  -9.568  0.00  0.00    +0.000 NA
BRANCH  20  21
ATOM     21  C10 ZMR A 466      -5.151  60.413 -10.215  0.00  0.00    +0.000 C 
ATOM     22  O10 ZMR A 466      -5.750  61.448 -10.005  0.00  0.00    +0.000 OA
ATOM     23  C11 ZMR A 466      -4.039  60.342 -11.243  0.00  0.00    +0.000 C 
ENDBRANCH  20  21
ENDBRANCH   4  20
TORSDOF 7
ENDMDL
MODEL 6
REMARK VINA RESULT:    -4.922      2.048      2.905
REMARK INTER + INTRA:          -8.149
REMARK INTER:                  -7.322
REMARK INTRA:                  -0.827
REMARK UNBOUND:                -1.213
REMARK  Name = obj01
REMARK  7 active torsions:
REMARK  status: ('A' for Active; 'I' for Inactive)
REMARK    1  A    between atoms: NE_1  and  C4_10
REMARK    2  A    between atoms: C1_5  and  C2_8
REMARK    3  A    between atoms: C5_11  and  N5_12
REMARK    4  A    between atoms: N5_12  and  C10_21
REMARK    5  A    between atoms: C6_13  and  C7_15
REMARK    6  A    between atoms: C7_15  and  C8_17
REMARK    7  A    between atoms: C8_17  and  C9_19
REMARK                            x       y       z     vdW  Elec       q    Type
REMARK                         _______ _______ _______ _____ _____    ______ ____
ROOT
ATOM      1  C2  ZMR A 466      -2.508  58.349  -7.797  0.00  0.00    +0.000 C 
ATOM      2  C3  ZMR A 466      -2.871  57.063  -7.932  0.00  0.00    +0.000 C 
ATOM      3  C4  ZMR A 466      -3.731  56.620  -9.076  0.00  0.00    +0.000 C 
ATOM      4  C5  ZMR A 466      -3.796  57.633 -10.161  0.00  0.00    +0.000 C 
ATOM      5  C6  ZMR A 466      -3.972  59.039  -9.514  0.00  0.00    +0.000 C 
ATOM      6  O6  ZMR A 466      -2.894  59.305  -8.621  0.00  0.00    +0.000 OA
ENDROOT
BRANCH   3   7
ATOM      7  NE  ZMR A 466      -3.343  55.339  -9.627  0.00  0.00    +0.000 NA
ATOM      8  CZ  ZMR A 466      -4.224  54.367  -9.849  0.00  0.00    +0.000 C 
ATOM      9  NH1 ZMR A 466      -5.494  54.472  -9.441  0.00  0.00    +0.000 NA
ATOM     10  NH2 ZMR A 466      -3.831  53.308 -10.551  0.00  0.00    +0.000 NA
ENDBRANCH   3   7
BRANCH   1  11
ATOM     11  C1  ZMR A 466      -1.629  58.754  -6.686  0.00  0.00    +0.000 C 
ATOM     12  O1A ZMR A 466      -0.683  59.658  -6.955  0.00  0.00    +0.000 OA
ATOM     13  O1B ZMR A 466      -1.792  58.254  -5.618  0.00  0.00    +0.000 OA
ENDBRANCH   1  11
BRANCH   5  14
ATOM     14  C7  ZMR A 466      -4.235  60.223 -10.432  0.00  0.00    +0.000 C 
ATOM     15  O7  ZMR A 466      -3.179  60.112 -10.735  0.00  0.00    +0.000 OA
BRANCH  14  16
ATOM     16  C8  ZMR A 466      -4.821  61.381  -9.811  0.00  0.00    +0.000 C 
ATOM     17  O8  ZMR A 466      -5.795  60.789  -8.946  0.00  0.00    +0.000 OA
BRANCH  16  18
ATOM     18  C9  ZMR A 466      -5.508  62.357 -10.764  0.00  0.00    +0.000 C 
ATOM     19  O9  ZMR A 466      -6.403  63.203 -10.043  0.00  0.00    +0.000 OA
ENDBRANCH  16  18
ENDBRANCH  14  16
ENDBRANCH   5  14
BRANCH   4  20
ATOM     20  N5  ZMR A 466      -4.933  57.375 -11.033  0.00  0.00    +0.000 NA
BRANCH  20  21
ATOM     21  C10 ZMR A 466      -4.822  57.065 -12.328  0.00  0.00    +0.000 C 
ATOM     22  O10 ZMR A 466      -3.830  56.568 -12.822  0.00  0.00    +0.000 OA
ATOM     23  C11 ZMR A 466      -6.052  57.362 -13.161  0.00  0.00    +0.000 C 
ENDBRANCH  20  21
ENDBRANCH   4  20
TORSDOF 7
ENDMDL
MODEL 7
REMARK VINA RESULT:    -4.739      3.282      5.006
REMARK INTER + INTRA:          -7.890
REMARK INTER:                  -6.891
REMARK INTRA:                  -0.999
REMARK UNBOUND:                -1.213
REMARK  Name = obj01
REMARK  7 active torsions:
REMARK  status: ('A' for Active; 'I' for Inactive)
REMARK    1  A    between atoms: NE_1  and  C4_10
REMARK    2  A    between atoms: C1_5  and  C2_8
REMARK    3  A    between atoms: C5_11  and  N5_12
REMARK    4  A    between atoms: N5_12  and  C10_21
REMARK    5  A    between atoms: C6_13  and  C7_15
REMARK    6  A    between atoms: C7_15  and  C8_17
REMARK    7  A    between atoms: C8_17  and  C9_19
REMARK                            x       y       z     vdW  Elec       q    Type
REMARK                         _______ _______ _______ _____ _____    ______ ____
ROOT
ATOM      1  C2  ZMR A 466      -2.610  56.572  -8.461  0.00  0.00    +0.000 C 
ATOM      2  C3  ZMR A 466      -2.013  57.475  -7.667  0.00  0.00    +0.000 C 
ATOM      3  C4  ZMR A 466      -2.340  58.934  -7.772  0.00  0.00    +0.000 C 
ATOM      4  C5  ZMR A 466      -3.590  59.180  -8.537  0.00  0.00    +0.000 C 
ATOM      5  C6  ZMR A 466      -3.591  58.256  -9.792  0.00  0.00    +0.000 C 
ATOM      6  O6  ZMR A 466      -3.486  56.892  -9.395  0.00  0.00    +0.000 OA
ENDROOT
BRANCH   3   7
ATOM      7  NE  ZMR A 466      -2.411  59.604  -6.492  0.00  0.00    +0.000 NA
ATOM      8  CZ  ZMR A 466      -1.521  60.521  -6.121  0.00  0.00    +0.000 C 
ATOM      9  NH1 ZMR A 466      -0.431  60.768  -6.855  0.00  0.00    +0.000 NA
ATOM     10  NH2 ZMR A 466      -1.774  61.241  -5.032  0.00  0.00    +0.000 NA
ENDBRANCH   3   7
BRANCH   1  11
ATOM     11  C1  ZMR A 466      -2.302  55.139  -8.311  0.00  0.00    +0.000 C 
ATOM     12  O1A ZMR A 466      -2.929  54.292  -9.130  0.00  0.00    +0.000 OA
ATOM     13  O1B ZMR A 466      -1.529  54.808  -7.469  0.00  0.00    +0.000 OA
ENDBRANCH   1  11
BRANCH   5  14
ATOM     14  C7  ZMR A 466      -4.692  58.450 -10.823  0.00  0.00    +0.000 C 
ATOM     15  O7  ZMR A 466      -5.320  57.854 -10.138  0.00  0.00    +0.000 OA
BRANCH  14  16
ATOM     16  C8  ZMR A 466      -4.352  58.103 -12.177  0.00  0.00    +0.000 C 
ATOM     17  O8  ZMR A 466      -4.842  59.235 -12.902  0.00  0.00    +0.000 OA
BRANCH  16  18
ATOM     18  C9  ZMR A 466      -5.007  56.830 -12.710  0.00  0.00    +0.000 C 
ATOM     19  O9  ZMR A 466      -6.170  57.155 -13.470  0.00  0.00    +0.000 OA
ENDBRANCH  16  18
ENDBRANCH  14  16
ENDBRANCH   5  14
BRANCH   4  20
ATOM     20  N5  ZMR A 466      -3.655  60.566  -8.977  0.00  0.00    +0.000 NA
BRANCH  20  21
ATOM     21  C10 ZMR A 466      -4.702  61.367  -8.757  0.00  0.00    +0.000 C 
ATOM     22  O10 ZMR A 466      -5.619  61.511  -9.540  0.00  0.00    +0.000 OA
ATOM     23  C11 ZMR A 466      -4.682  62.087  -7.425  0.00  0.00    +0.000 C 
ENDBRANCH  20  21
ENDBRANCH   4  20
TORSDOF 7
ENDMDL
MODEL 8
REMARK VINA RESULT:    -4.612      2.963      5.292
REMARK INTER + INTRA:          -7.712
REMARK INTER:                  -6.908
REMARK INTRA:                  -0.804
REMARK UNBOUND:                -1.213
REMARK  Name = obj01
REMARK  7 active torsions:
REMARK  status: ('A' for Active; 'I' for Inactive)
REMARK    1  A    between atoms: NE_1  and  C4_10
REMARK    2  A    between atoms: C1_5  and  C2_8
REMARK    3  A    between atoms: C5_11  and  N5_12
REMARK    4  A    between atoms: N5_12  and  C10_21
REMARK    5  A    between atoms: C6_13  and  C7_15
REMARK    6  A    between atoms: C7_15  and  C8_17
REMARK    7  A    between atoms: C8_17  and  C9_19
REMARK                            x       y       z     vdW  Elec       q    Type
REMARK                         _______ _______ _______ _____ _____    ______ ____
ROOT
ATOM      1  C2  ZMR A 466      -2.298  56.170  -8.616  0.00  0.00    +0.000 C 
ATOM      2  C3  ZMR A 466      -3.285  55.965  -9.504  0.00  0.00    +0.000 C 
ATOM      3  C4  ZMR A 466      -4.126  57.101 -10.001  0.00  0.00    +0.000 C 
ATOM      4  C5  ZMR A 466      -3.520  58.425  -9.705  0.00  0.00    +0.000 C 
ATOM      5  C6  ZMR A 466      -2.969  58.402  -8.248  0.00  0.00    +0.000 C 
ATOM      6  O6  ZMR A 466      -2.018  57.352  -8.101  0.00  0.00    +0.000 OA
ENDROOT
BRANCH   3   7
ATOM      7  NE  ZMR A 466      -4.441  57.013 -11.411  0.00  0.00    +0.000 NA
ATOM      8  CZ  ZMR A 466      -5.680  57.165 -11.870  0.00  0.00    +0.000 C 
ATOM      9  NH1 ZMR A 466      -6.723  57.266 -11.039  0.00  0.00    +0.000 NA
ATOM     10  NH2 ZMR A 466      -5.855  57.284 -13.184  0.00  0.00    +0.000 NA
ENDBRANCH   3   7
BRANCH   1  11
ATOM     11  C1  ZMR A 466      -1.459  55.043  -8.174  0.00  0.00    +0.000 C 
ATOM     12  O1A ZMR A 466      -0.311  54.845  -8.825  0.00  0.00    +0.000 OA
ATOM     13  O1B ZMR A 466      -1.845  54.363  -7.276  0.00  0.00    +0.000 OA
ENDBRANCH   1  11
BRANCH   5  14
ATOM     14  C7  ZMR A 466      -2.453  59.704  -7.656  0.00  0.00    +0.000 C 
ATOM     15  O7  ZMR A 466      -1.476  59.192  -7.603  0.00  0.00    +0.000 OA
BRANCH  14  16
ATOM     16  C8  ZMR A 466      -3.198  60.226  -6.541  0.00  0.00    +0.000 C 
ATOM     17  O8  ZMR A 466      -4.047  61.184  -7.178  0.00  0.00    +0.000 OA
BRANCH  16  18
ATOM     18  C9  ZMR A 466      -2.364  60.917  -5.463  0.00  0.00    +0.000 C 
ATOM     19  O9  ZMR A 466      -1.835  62.145  -5.962  0.00  0.00    +0.000 OA
ENDBRANCH  16  18
ENDBRANCH  14  16
ENDBRANCH   5  14
BRANCH   4  20
ATOM     20  N5  ZMR A 466      -4.519  59.479  -9.810  0.00  0.00    +0.000 NA
BRANCH  20  21
ATOM     21  C10 ZMR A 466      -4.431  60.504 -10.663  0.00  0.00    +0.000 C 
ATOM     22  O10 ZMR A 466      -5.226  61.421 -10.705  0.00  0.00    +0.000 OA
ATOM     23  C11 ZMR A 466      -3.231  60.460 -11.588  0.00  0.00    +0.000 C 
ENDBRANCH  20  21
ENDBRANCH   4  20
TORSDOF 7
ENDMDL
MODEL 9
REMARK VINA RESULT:    -3.987      3.292      4.885
REMARK INTER + INTRA:          -6.831
REMARK INTER:                  -5.841
REMARK INTRA:                  -0.990
REMARK UNBOUND:                -1.213
REMARK  Name = obj01
REMARK  7 active torsions:
REMARK  status: ('A' for Active; 'I' for Inactive)
REMARK    1  A    between atoms: NE_1  and  C4_10
REMARK    2  A    between atoms: C1_5  and  C2_8
REMARK    3  A    between atoms: C5_11  and  N5_12
REMARK    4  A    between atoms: N5_12  and  C10_21
REMARK    5  A    between atoms: C6_13  and  C7_15
REMARK    6  A    between atoms: C7_15  and  C8_17
REMARK    7  A    between atoms: C8_17  and  C9_19
REMARK                            x       y       z     vdW  Elec       q    Type
REMARK                         _______ _______ _______ _____ _____    ______ ____
ROOT
ATOM      1  C2  ZMR A 466      -2.540  58.385  -7.858  0.00  0.00    +0.000 C 
ATOM      2  C3  ZMR A 466      -3.281  57.662  -8.714  0.00  0.00    +0.000 C 
ATOM      3  C4  ZMR A 466      -4.097  58.327  -9.782  0.00  0.00    +0.000 C 
ATOM      4  C5  ZMR A 466      -3.704  59.744  -9.995  0.00  0.00    +0.000 C 
ATOM      5  C6  ZMR A 466      -3.491  60.412  -8.604  0.00  0.00    +0.000 C 
ATOM      6  O6  ZMR A 466      -2.498  59.704  -7.868  0.00  0.00    +0.000 OA
ENDROOT
BRANCH   3   7
ATOM      7  NE  ZMR A 466      -4.081  57.620 -11.044  0.00  0.00    +0.000 NA
ATOM      8  CZ  ZMR A 466      -5.194  57.175 -11.620  0.00  0.00    +0.000 C 
ATOM      9  NH1 ZMR A 466      -6.374  57.231 -10.992  0.00  0.00    +0.000 NA
ATOM     10  NH2 ZMR A 466      -5.122  56.730 -12.872  0.00  0.00    +0.000 NA
ENDBRANCH   3   7
BRANCH   1  11
ATOM     11  C1  ZMR A 466      -1.715  57.707  -6.844  0.00  0.00    +0.000 C 
ATOM     12  O1A ZMR A 466      -1.212  56.513  -7.166  0.00  0.00    +0.000 OA
ATOM     13  O1B ZMR A 466      -1.547  58.243  -5.794  0.00  0.00    +0.000 OA
ENDBRANCH   1  11
BRANCH   5  14
ATOM     14  C7  ZMR A 466      -3.248  61.913  -8.560  0.00  0.00    +0.000 C 
ATOM     15  O7  ZMR A 466      -2.202  61.650  -8.321  0.00  0.00    +0.000 OA
BRANCH  14  16
ATOM     16  C8  ZMR A 466      -4.143  62.670  -7.725  0.00  0.00    +0.000 C 
ATOM     17  O8  ZMR A 466      -3.529  62.536  -6.440  0.00  0.00    +0.000 OA
BRANCH  16  18
ATOM     18  C9  ZMR A 466      -5.578  62.149  -7.664  0.00  0.00    +0.000 C 
ATOM     19  O9  ZMR A 466      -6.264  62.724  -6.553  0.00  0.00    +0.000 OA
ENDBRANCH  16  18
ENDBRANCH  14  16
ENDBRANCH   5  14
BRANCH   4  20
ATOM     20  N5  ZMR A 466      -4.752  60.463 -10.703  0.00  0.00    +0.000 NA
BRANCH  20  21
ATOM     21  C10 ZMR A 466      -4.531  61.239 -11.768  0.00  0.00    +0.000 C 
ATOM     22  O10 ZMR A 466      -4.634  62.449 -11.758  0.00  0.00    +0.000 OA
ATOM     23  C11 ZMR A 466      -4.113  60.495 -13.021  0.00  0.00    +0.000 C 
ENDBRANCH  20  21
ENDBRANCH   4  20
TORSDOF 7
ENDMDL
