MODEL 1
REMARK VINA RESULT:    -5.927      0.000      0.000
REMARK INTER + INTRA:          -9.568
REMARK INTER:                  -8.353
REMARK INTRA:                  -1.215
REMARK UNBOUND:                -1.215
REMARK  Name = obj01
REMARK  7 active torsions:
REMARK  status: ('A' for Active; 'I' for Inactive)
REMARK    1  A    between atoms: NE_1  and  C4_10
REMARK    2  A    between atoms: C1_5  and  C2_8
REMARK    3  A    between atoms: C5_11  and  N5_12
REMARK    4  A    between atoms: N5_12  and  C10_21
REMARK    5  A    between atoms: C6_13  and  C7_15
REMARK    6  A    between atoms: C7_15  and  C8_17
REMARK    7  A    between atoms: C8_17  and  C9_19
REMARK                            x       y       z     vdW  Elec       q    Type
REMARK                         _______ _______ _______ _____ _____    ______ ____
ROOT
ATOM      1  C2  ZMR A 466      -2.243  58.426  -7.591  0.00  0.00    +0.000 C 
ATOM      2  C3  ZMR A 466      -1.779  57.168  -7.511  0.00  0.00    +0.000 C 
ATOM      3  C4  ZMR A 466      -2.216  56.120  -8.490  0.00  0.00    +0.000 C 
ATOM      4  C5  ZMR A 466      -2.869  56.703  -9.690  0.00  0.00    +0.000 C 
ATOM      5  C6  ZMR A 466      -3.837  57.832  -9.226  0.00  0.00    +0.000 C 
ATOM      6  O6  ZMR A 466      -3.120  58.821  -8.494  0.00  0.00    +0.000 OA
ENDROOT
BRANCH   3   7
ATOM      7  NE  ZMR A 466      -1.149  55.231  -8.897  0.00  0.00    +0.000 NA
ATOM      8  CZ  ZMR A 466      -1.089  53.965  -8.493  0.00  0.00    +0.000 C 
ATOM      9  NH1 ZMR A 466      -1.934  53.487  -7.573  0.00  0.00    +0.000 NA
ATOM     10  NH2 ZMR A 466      -0.207  53.158  -9.077  0.00  0.00    +0.000 NA
ENDBRANCH   3   7
BRANCH   1  11
ATOM     11  C1  ZMR A 466      -1.768  59.448  -6.642  0.00  0.00    +0.000 C 
ATOM     12  O1A ZMR A 466      -0.509  59.871  -6.782  0.00  0.00    +0.000 OA
ATOM     13  O1B ZMR A 466      -2.514  59.834  -5.799  0.00  0.00    +0.000 OA
ENDBRANCH   1  11
BRANCH   5  14
ATOM     14  C7  ZMR A 466      -4.750  58.465 -10.265  0.00  0.00    +0.000 C 
ATOM     15  O7  ZMR A 466      -4.156  59.382 -10.102  0.00  0.00    +0.000 OA
BRANCH  14  16
ATOM     16  C8  ZMR A 466      -6.162  58.318 -10.034  0.00  0.00    +0.000 C 
ATOM     17  O8  ZMR A 466      -6.184  57.614  -8.789  0.00  0.00    +0.000 OA
BRANCH  16  18
ATOM     18  C9  ZMR A 466      -6.918  57.514 -11.090  0.00  0.00    +0.000 C 
ATOM     19  O9  ZMR A 466      -6.184  57.497 -12.314  0.00  0.00    +0.000 OA
ENDBRANCH  16  18
ENDBRANCH  14  16
ENDBRANCH   5  14
BRANCH   4  20
ATOM     20  N5  ZMR A 466      -3.638  55.689 -10.397  0.00  0.00    +0.000 NA
BRANCH  20  21
ATOM     21  C10 ZMR A 466      -3.345  55.259 -11.627  0.00  0.00    +0.000 C 
ATOM     22  O10 ZMR A 466      -3.334  55.972 -12.610  0.00  0.00    +0.000 OA
ATOM     23  C11 ZMR A 466      -2.998  53.786 -11.719  0.00  0.00    +0.000 C 
ENDBRANCH  20  21
ENDBRANCH   4  20
TORSDOF 7
ENDMDL
MODEL 2
REMARK VINA RESULT:    -5.854      2.520      4.734
REMARK INTER + INTRA:          -9.465
REMARK INTER:                  -8.452
REMARK INTRA:                  -1.013
REMARK UNBOUND:                -1.215
REMARK  Name = obj01
REMARK  7 active torsions:
REMARK  status: ('A' for Active; 'I' for Inactive)
REMARK    1  A    between atoms: NE_1  and  C4_10
REMARK    2  A    between atoms: C1_5  and  C2_8
REMARK    3  A    between atoms: C5_11  and  N5_12
REMARK    4  A    between atoms: N5_12  and  C10_21
REMARK    5  A    between atoms: C6_13  and  C7_15
REMARK    6  A    between atoms: C7_15  and  C8_17
REMARK    7  A    between atoms: C8_17  and  C9_19
REMARK                            x       y       z     vdW  Elec       q    Type
REMARK                         _______ _______ _______ _____ _____    ______ ____
ROOT
ATOM      1  C2  ZMR A 466      -2.053  58.136  -7.504  0.00  0.00    +0.000 C 
ATOM      2  C3  ZMR A 466      -3.106  58.596  -8.199  0.00  0.00    +0.000 C 
ATOM      3  C4  ZMR A 466      -3.927  57.679  -9.054  0.00  0.00    +0.000 C 
ATOM      4  C5  ZMR A 466      -3.679  56.247  -8.749  0.00  0.00    +0.000 C 
ATOM      5  C6  ZMR A 466      -2.144  56.037  -8.577  0.00  0.00    +0.000 C 
ATOM      6  O6  ZMR A 466      -1.648  56.881  -7.543  0.00  0.00    +0.000 OA
ENDROOT
BRANCH   3   7
ATOM      7  NE  ZMR A 466      -5.347  57.952  -8.995  0.00  0.00    +0.000 NA
ATOM      8  CZ  ZMR A 466      -6.033  58.368 -10.056  0.00  0.00    +0.000 C 
ATOM      9  NH1 ZMR A 466      -5.418  58.694 -11.199  0.00  0.00    +0.000 NA
ATOM     10  NH2 ZMR A 466      -7.361  58.390  -9.980  0.00  0.00    +0.000 NA
ENDBRANCH   3   7
BRANCH   1  11
ATOM     11  C1  ZMR A 466      -1.286  59.049  -6.638  0.00  0.00    +0.000 C 
ATOM     12  O1A ZMR A 466      -1.436  58.907  -5.319  0.00  0.00    +0.000 OA
ATOM     13  O1B ZMR A 466      -0.587  59.866  -7.148  0.00  0.00    +0.000 OA
ENDBRANCH   1  11
BRANCH   5  14
ATOM     14  C7  ZMR A 466      -1.628  54.614  -8.427  0.00  0.00    +0.000 C 
ATOM     15  O7  ZMR A 466      -1.306  54.929  -7.419  0.00  0.00    +0.000 OA
BRANCH  14  16
ATOM     16  C8  ZMR A 466      -0.771  54.143  -9.482  0.00  0.00    +0.000 C 
ATOM     17  O8  ZMR A 466       0.519  54.552  -9.017  0.00  0.00    +0.000 OA
BRANCH  16  18
ATOM     18  C9  ZMR A 466      -1.035  54.748 -10.859  0.00  0.00    +0.000 C 
ATOM     19  O9  ZMR A 466      -1.505  53.744 -11.757  0.00  0.00    +0.000 OA
ENDBRANCH  16  18
ENDBRANCH  14  16
ENDBRANCH   5  14
BRANCH   4  20
ATOM     20  N5  ZMR A 466      -4.146  55.404  -9.840  0.00  0.00    +0.000 NA
BRANCH  20  21
ATOM     21  C10 ZMR A 466      -5.036  54.419  -9.689  0.00  0.00    +0.000 C 
ATOM     22  O10 ZMR A 466      -6.201  54.598  -9.394  0.00  0.00    +0.000 OA
ATOM     23  C11 ZMR A 466      -4.491  53.027  -9.935  0.00  0.00    +0.000 C 
ENDBRANCH  20  21
ENDBRANCH   4  20
TORSDOF 7
ENDMDL
MODEL 3
REMARK VINA RESULT:    -5.670      0.943      1.490
REMARK INTER + INTRA:          -9.206
REMARK INTER:                  -8.113
REMARK INTRA:                  -1.093
REMARK UNBOUND:                -1.215
REMARK  Name = obj01
REMARK  7 active torsions:
REMARK  status: ('A' for Active; 'I' for Inactive)
REMARK    1  A    between atoms: NE_1  and  C4_10
REMARK    2  A    between atoms: C1_5  and  C2_8
REMARK    3  A    between atoms: C5_11  and  N5_12
REMARK    4  A    between atoms: N5_12  and  C10_21
REMARK    5  A    between atoms: C6_13  and  C7_15
REMARK    6  A    between atoms: C7_15  and  C8_17
REMARK    7  A    between atoms: C8_17  and  C9_19
REMARK                            x       y       z     vdW  Elec       q    Type
REMARK                         _______ _______ _______ _____ _____    ______ ____
ROOT
ATOM      1  C2  ZMR A 466      -2.151  58.423  -7.392  0.00  0.00    +0.000 C 
ATOM      2  C3  ZMR A 466      -1.654  57.176  -7.358  0.00  0.00    +0.000 C 
ATOM      3  C4  ZMR A 466      -2.153  56.120  -8.297  0.00  0.00    +0.000 C 
ATOM      4  C5  ZMR A 466      -2.925  56.690  -9.432  0.00  0.00    +0.000 C 
ATOM      5  C6  ZMR A 466      -3.873  57.796  -8.878  0.00  0.00    +0.000 C 
ATOM      6  O6  ZMR A 466      -3.115  58.800  -8.210  0.00  0.00    +0.000 OA
ENDROOT
BRANCH   3   7
ATOM      7  NE  ZMR A 466      -1.108  55.256  -8.803  0.00  0.00    +0.000 NA
ATOM      8  CZ  ZMR A 466      -1.051  53.962  -8.500  0.00  0.00    +0.000 C 
ATOM      9  NH1 ZMR A 466      -1.876  53.421  -7.596  0.00  0.00    +0.000 NA
ATOM     10  NH2 ZMR A 466      -0.195  53.195  -9.170  0.00  0.00    +0.000 NA
ENDBRANCH   3   7
BRANCH   1  11
ATOM     11  C1  ZMR A 466      -1.615  59.455  -6.487  0.00  0.00    +0.000 C 
ATOM     12  O1A ZMR A 466      -0.299  59.678  -6.528  0.00  0.00    +0.000 OA
ATOM     13  O1B ZMR A 466      -2.368  60.024  -5.762  0.00  0.00    +0.000 OA
ENDBRANCH   1  11
BRANCH   5  14
ATOM     14  C7  ZMR A 466      -4.890  58.409  -9.828  0.00  0.00    +0.000 C 
ATOM     15  O7  ZMR A 466      -4.015  58.822 -10.360  0.00  0.00    +0.000 OA
BRANCH  14  16
ATOM     16  C8  ZMR A 466      -5.944  59.171  -9.213  0.00  0.00    +0.000 C 
ATOM     17  O8  ZMR A 466      -7.109  58.600  -9.815  0.00  0.00    +0.000 OA
BRANCH  16  18
ATOM     18  C9  ZMR A 466      -5.910  60.674  -9.486  0.00  0.00    +0.000 C 
ATOM     19  O9  ZMR A 466      -5.306  61.360  -8.390  0.00  0.00    +0.000 OA
ENDBRANCH  16  18
ENDBRANCH  14  16
ENDBRANCH   5  14
BRANCH   4  20
ATOM     20  N5  ZMR A 466      -3.732  55.660 -10.069  0.00  0.00    +0.000 NA
BRANCH  20  21
ATOM     21  C10 ZMR A 466      -3.620  55.319 -11.356  0.00  0.00    +0.000 C 
ATOM     22  O10 ZMR A 466      -3.889  56.061 -12.279  0.00  0.00    +0.000 OA
ATOM     23  C11 ZMR A 466      -3.104  53.915 -11.599  0.00  0.00    +0.000 C 
ENDBRANCH  20  21
ENDBRANCH   4  20
TORSDOF 7
ENDMDL
MODEL 4
REMARK VINA RESULT:    -5.634      3.046      4.739
REMARK INTER + INTRA:          -9.155
REMARK INTER:                  -8.010
REMARK INTRA:                  -1.145
REMARK UNBOUND:                -1.215
REMARK  Name = obj01
REMARK  7 active torsions:
REMARK  status: ('A' for Active; 'I' for Inactive)
REMARK    1  A    between atoms: NE_1  and  C4_10
REMARK    2  A    between atoms: C1_5  and  C2_8
REMARK    3  A    between atoms: C5_11  and  N5_12
REMARK    4  A    between atoms: N5_12  and  C10_21
REMARK    5  A    between atoms: C6_13  and  C7_15
REMARK    6  A    between atoms: C7_15  and  C8_17
REMARK    7  A    between atoms: C8_17  and  C9_19
REMARK                            x       y       z     vdW  Elec       q    Type
REMARK                         _______ _______ _______ _____ _____    ______ ____
ROOT
ATOM      1  C2  ZMR A 466      -2.225  55.366  -8.475  0.00  0.00    +0.000 C 
ATOM      2  C3  ZMR A 466      -1.890  56.510  -7.857  0.00  0.00    +0.000 C 
ATOM      3  C4  ZMR A 466      -2.647  57.777  -8.115  0.00  0.00    +0.000 C 
ATOM      4  C5  ZMR A 466      -3.948  57.533  -8.788  0.00  0.00    +0.000 C 
ATOM      5  C6  ZMR A 466      -3.732  56.475  -9.912  0.00  0.00    +0.000 C 
ATOM      6  O6  ZMR A 466      -3.201  55.275  -9.358  0.00  0.00    +0.000 OA
ENDROOT
BRANCH   3   7
ATOM      7  NE  ZMR A 466      -2.854  58.578  -6.928  0.00  0.00    +0.000 NA
ATOM      8  CZ  ZMR A 466      -2.328  59.792  -6.791  0.00  0.00    +0.000 C 
ATOM      9  NH1 ZMR A 466      -1.461  60.280  -7.685  0.00  0.00    +0.000 NA
ATOM     10  NH2 ZMR A 466      -2.737  60.546  -5.774  0.00  0.00    +0.000 NA
ENDBRANCH   3   7
BRANCH   1  11
ATOM     11  C1  ZMR A 466      -1.492  54.124  -8.174  0.00  0.00    +0.000 C 
ATOM     12  O1A ZMR A 466      -0.448  53.828  -8.953  0.00  0.00    +0.000 OA
ATOM     13  O1B ZMR A 466      -1.866  53.445  -7.271  0.00  0.00    +0.000 OA
ENDBRANCH   1  11
BRANCH   5  14
ATOM     14  C7  ZMR A 466      -4.889  56.185 -10.855  0.00  0.00    +0.000 C 
ATOM     15  O7  ZMR A 466      -4.946  55.207 -10.347  0.00  0.00    +0.000 OA
BRANCH  14  16
ATOM     16  C8  ZMR A 466      -4.628  56.399 -12.254  0.00  0.00    +0.000 C 
ATOM     17  O8  ZMR A 466      -3.453  57.214 -12.212  0.00  0.00    +0.000 OA
BRANCH  16  18
ATOM     18  C9  ZMR A 466      -5.730  57.128 -13.021  0.00  0.00    +0.000 C 
ATOM     19  O9  ZMR A 466      -6.813  57.443 -12.147  0.00  0.00    +0.000 OA
ENDBRANCH  16  18
ENDBRANCH  14  16
ENDBRANCH   5  14
BRANCH   4  20
ATOM     20  N5  ZMR A 466      -4.450  58.759  -9.391  0.00  0.00    +0.000 NA
BRANCH  20  21
ATOM     21  C10 ZMR A 466      -5.630  59.307  -9.088  0.00  0.00    +0.000 C 
ATOM     22  O10 ZMR A 466      -6.676  58.690  -9.058  0.00  0.00    +0.000 OA
ATOM     23  C11 ZMR A 466      -5.577  60.784  -8.754  0.00  0.00    +0.000 C 
ENDBRANCH  20  21
ENDBRANCH   4  20
TORSDOF 7
ENDMDL
MODEL 5
REMARK VINA RESULT:    -5.507      1.866      4.596
REMARK INTER + INTRA:          -8.976
REMARK INTER:                  -8.086
REMARK INTRA:                  -0.890
REMARK UNBOUND:                -1.215
REMARK  Name = obj01
REMARK  7 active torsions:
REMARK  status: ('A' for Active; 'I' for Inactive)
REMARK    1  A    between atoms: NE_1  and  C4_10
REMARK    2  A    between atoms: C1_5  and  C2_8
REMARK    3  A    between atoms: C5_11  and  N5_12
REMARK    4  A    between atoms: N5_12  and  C10_21
REMARK    5  A    between atoms: C6_13  and  C7_15
REMARK    6  A    between atoms: C7_15  and  C8_17
REMARK    7  A    between atoms: C8_17  and  C9_19
REMARK                            x       y       z     vdW  Elec       q    Type
REMARK                         _______ _______ _______ _____ _____    ______ ____
ROOT
ATOM      1  C2  ZMR A 466      -4.944  58.274  -9.357  0.00  0.00    +0.000 C 
ATOM      2  C3  ZMR A 466      -4.698  57.253 -10.194  0.00  0.00    +0.000 C 
ATOM      3  C4  ZMR A 466      -3.488  56.385 -10.019  0.00  0.00    +0.000 C 
ATOM      4  C5  ZMR A 466      -2.863  56.548  -8.681  0.00  0.00    +0.000 C 
ATOM      5  C6  ZMR A 466      -2.827  58.067  -8.335  0.00  0.00    +0.000 C 
ATOM      6  O6  ZMR A 466      -4.146  58.605  -8.360  0.00  0.00    +0.000 OA
ENDROOT
BRANCH   3   7
ATOM      7  NE  ZMR A 466      -3.742  54.983 -10.272  0.00  0.00    +0.000 NA
ATOM      8  CZ  ZMR A 466      -3.122  54.315 -11.241  0.00  0.00    +0.000 C 
ATOM      9  NH1 ZMR A 466      -2.336  54.939 -12.125  0.00  0.00    +0.000 NA
ATOM     10  NH2 ZMR A 466      -3.246  52.991 -11.272  0.00  0.00    +0.000 NA
ENDBRANCH   3   7
BRANCH   1  11
ATOM     11  C1  ZMR A 466      -6.161  59.087  -9.525  0.00  0.00    +0.000 C 
ATOM     12  O1A ZMR A 466      -6.025  60.413  -9.438  0.00  0.00    +0.000 OA
ATOM     13  O1B ZMR A 466      -7.196  58.532  -9.715  0.00  0.00    +0.000 OA
ENDBRANCH   1  11
BRANCH   5  14
ATOM     14  C7  ZMR A 466      -2.076  58.499  -7.085  0.00  0.00    +0.000 C 
ATOM     15  O7  ZMR A 466      -2.984  58.189  -6.537  0.00  0.00    +0.000 OA
BRANCH  14  16
ATOM     16  C8  ZMR A 466      -1.517  59.825  -7.115  0.00  0.00    +0.000 C 
ATOM     17  O8  ZMR A 466      -0.201  59.599  -6.601  0.00  0.00    +0.000 OA
BRANCH  16  18
ATOM     18  C9  ZMR A 466      -2.235  60.858  -6.250  0.00  0.00    +0.000 C 
ATOM     19  O9  ZMR A 466      -3.260  61.505  -7.003  0.00  0.00    +0.000 OA
ENDBRANCH  16  18
ENDBRANCH  14  16
ENDBRANCH   5  14
BRANCH   4  20
ATOM     20  N5  ZMR A 466      -1.499  56.040  -8.690  0.00  0.00    +0.000 NA
BRANCH  20  21
ATOM     21  C10 ZMR A 466      -1.173  54.784  -8.369  0.00  0.00    +0.000 C 
ATOM     22  O10 ZMR A 466      -1.756  54.125  -7.532  0.00  0.00    +0.000 OA
ATOM     23  C11 ZMR A 466      -0.009  54.210  -9.152  0.00  0.00    +0.000 C 
ENDBRANCH  20  21
ENDBRANCH   4  20
TORSDOF 7
ENDMDL
MODEL 6
REMARK VINA RESULT:    -5.438      1.739      2.289
REMARK INTER + INTRA:          -8.878
REMARK INTER:                  -7.792
REMARK INTRA:                  -1.087
REMARK UNBOUND:                -1.215
REMARK  Name = obj01
REMARK  7 active torsions:
REMARK  status: ('A' for Active; 'I' for Inactive)
REMARK    1  A    between atoms: NE_1  and  C4_10
REMARK    2  A    between atoms: C1_5  and  C2_8
REMARK    3  A    between atoms: C5_11  and  N5_12
REMARK    4  A    between atoms: N5_12  and  C10_21
REMARK    5  A    between atoms: C6_13  and  C7_15
REMARK    6  A    between atoms: C7_15  and  C8_17
REMARK    7  A    between atoms: C8_17  and  C9_19
REMARK                            x       y       z     vdW  Elec       q    Type
REMARK                         _______ _______ _______ _____ _____    ______ ____
ROOT
ATOM      1  C2  ZMR A 466      -2.237  57.401  -7.968  0.00  0.00    +0.000 C 
ATOM      2  C3  ZMR A 466      -2.372  56.129  -8.377  0.00  0.00    +0.000 C 
ATOM      3  C4  ZMR A 466      -3.224  55.784  -9.560  0.00  0.00    +0.000 C 
ATOM      4  C5  ZMR A 466      -3.557  56.974 -10.384  0.00  0.00    +0.000 C 
ATOM      5  C6  ZMR A 466      -3.933  58.147  -9.429  0.00  0.00    +0.000 C 
ATOM      6  O6  ZMR A 466      -2.853  58.418  -8.540  0.00  0.00    +0.000 OA
ENDROOT
BRANCH   3   7
ATOM      7  NE  ZMR A 466      -2.656  54.752 -10.400  0.00  0.00    +0.000 NA
ATOM      8  CZ  ZMR A 466      -3.267  53.587 -10.603  0.00  0.00    +0.000 C 
ATOM      9  NH1 ZMR A 466      -4.371  53.253  -9.926  0.00  0.00    +0.000 NA
ATOM     10  NH2 ZMR A 466      -2.792  52.783 -11.550  0.00  0.00    +0.000 NA
ENDBRANCH   3   7
BRANCH   1  11
ATOM     11  C1  ZMR A 466      -1.361  57.719  -6.827  0.00  0.00    +0.000 C 
ATOM     12  O1A ZMR A 466      -1.170  59.011  -6.547  0.00  0.00    +0.000 OA
ATOM     13  O1B ZMR A 466      -0.860  56.823  -6.225  0.00  0.00    +0.000 OA
ENDBRANCH   1  11
BRANCH   5  14
ATOM     14  C7  ZMR A 466      -4.477  59.427 -10.046  0.00  0.00    +0.000 C 
ATOM     15  O7  ZMR A 466      -3.530  59.888  -9.712  0.00  0.00    +0.000 OA
BRANCH  14  16
ATOM     16  C8  ZMR A 466      -5.799  59.811  -9.629  0.00  0.00    +0.000 C 
ATOM     17  O8  ZMR A 466      -5.519  60.680  -8.528  0.00  0.00    +0.000 OA
BRANCH  16  18
ATOM     18  C9  ZMR A 466      -6.697  58.666  -9.163  0.00  0.00    +0.000 C 
ATOM     19  O9  ZMR A 466      -7.571  58.266 -10.217  0.00  0.00    +0.000 OA
ENDBRANCH  16  18
ENDBRANCH  14  16
ENDBRANCH   5  14
BRANCH   4  20
ATOM     20  N5  ZMR A 466      -4.694  56.695 -11.249  0.00  0.00    +0.000 NA
BRANCH  20  21
ATOM     21  C10 ZMR A 466      -4.672  56.845 -12.577  0.00  0.00    +0.000 C 
ATOM     22  O10 ZMR A 466      -3.685  56.666 -13.262  0.00  0.00    +0.000 OA
ATOM     23  C11 ZMR A 466      -5.997  57.243 -13.194  0.00  0.00    +0.000 C 
ENDBRANCH  20  21
ENDBRANCH   4  20
TORSDOF 7
ENDMDL
MODEL 7
REMARK VINA RESULT:    -5.430      2.354      4.688
REMARK INTER + INTRA:          -8.867
REMARK INTER:                  -7.819
REMARK INTRA:                  -1.048
REMARK UNBOUND:                -1.215
REMARK  Name = obj01
REMARK  7 active torsions:
REMARK  status: ('A' for Active; 'I' for Inactive)
REMARK    1  A    between atoms: NE_1  and  C4_10
REMARK    2  A    between atoms: C1_5  and  C2_8
REMARK    3  A    between atoms: C5_11  and  N5_12
REMARK    4  A    between atoms: N5_12  and  C10_21
REMARK    5  A    between atoms: C6_13  and  C7_15
REMARK    6  A    between atoms: C7_15  and  C8_17
REMARK    7  A    between atoms: C8_17  and  C9_19
REMARK                            x       y       z     vdW  Elec       q    Type
REMARK                         _______ _______ _______ _____ _____    ______ ____
ROOT
ATOM      1  C2  ZMR A 466      -4.968  53.817  -9.512  0.00  0.00    +0.000 C 
ATOM      2  C3  ZMR A 466      -3.663  53.745  -9.822  0.00  0.00    +0.000 C 
ATOM      3  C4  ZMR A 466      -2.777  54.949  -9.719  0.00  0.00    +0.000 C 
ATOM      4  C5  ZMR A 466      -3.397  56.041  -8.925  0.00  0.00    +0.000 C 
ATOM      5  C6  ZMR A 466      -4.892  56.169  -9.342  0.00  0.00    +0.000 C 
ATOM      6  O6  ZMR A 466      -5.565  54.931  -9.134  0.00  0.00    +0.000 OA
ENDROOT
BRANCH   3   7
ATOM      7  NE  ZMR A 466      -1.459  54.654  -9.200  0.00  0.00    +0.000 NA
ATOM      8  CZ  ZMR A 466      -0.409  54.473  -9.996  0.00  0.00    +0.000 C 
ATOM      9  NH1 ZMR A 466      -0.545  54.412 -11.325  0.00  0.00    +0.000 NA
ATOM     10  NH2 ZMR A 466       0.800  54.420  -9.442  0.00  0.00    +0.000 NA
ENDBRANCH   3   7
BRANCH   1  11
ATOM     11  C1  ZMR A 466      -5.810  52.609  -9.582  0.00  0.00    +0.000 C 
ATOM     12  O1A ZMR A 466      -7.130  52.780  -9.479  0.00  0.00    +0.000 OA
ATOM     13  O1B ZMR A 466      -5.280  51.552  -9.712  0.00  0.00    +0.000 OA
ENDBRANCH   1  11
BRANCH   5  14
ATOM     14  C7  ZMR A 466      -5.694  57.335  -8.785  0.00  0.00    +0.000 C 
ATOM     15  O7  ZMR A 466      -6.183  56.581  -8.144  0.00  0.00    +0.000 OA
BRANCH  14  16
ATOM     16  C8  ZMR A 466      -6.347  58.170  -9.760  0.00  0.00    +0.000 C 
ATOM     17  O8  ZMR A 466      -6.141  57.429 -10.966  0.00  0.00    +0.000 OA
BRANCH  16  18
ATOM     18  C9  ZMR A 466      -5.764  59.573  -9.914  0.00  0.00    +0.000 C 
ATOM     19  O9  ZMR A 466      -4.758  59.581 -10.926  0.00  0.00    +0.000 OA
ENDBRANCH  16  18
ENDBRANCH  14  16
ENDBRANCH   5  14
BRANCH   4  20
ATOM     20  N5  ZMR A 466      -2.729  57.307  -9.189  0.00  0.00    +0.000 NA
BRANCH  20  21
ATOM     21  C10 ZMR A 466      -2.394  58.184  -8.238  0.00  0.00    +0.000 C 
ATOM     22  O10 ZMR A 466      -2.659  59.368  -8.284  0.00  0.00    +0.000 OA
ATOM     23  C11 ZMR A 466      -1.661  57.587  -7.053  0.00  0.00    +0.000 C 
ENDBRANCH  20  21
ENDBRANCH   4  20
TORSDOF 7
ENDMDL
MODEL 8
REMARK VINA RESULT:    -5.324      1.883      4.771
REMARK INTER + INTRA:          -8.718
REMARK INTER:                  -8.486
REMARK INTRA:                  -0.232
REMARK UNBOUND:                -1.215
REMARK  Name = obj01
REMARK  7 active torsions:
REMARK  status: ('A' for Active; 'I' for Inactive)
REMARK    1  A    between atoms: NE_1  and  C4_10
REMARK    2  A    between atoms: C1_5  and  C2_8
REMARK    3  A    between atoms: C5_11  and  N5_12
REMARK    4  A    between atoms: N5_12  and  C10_21
REMARK    5  A    between atoms: C6_13  and  C7_15
REMARK    6  A    between atoms: C7_15  and  C8_17
REMARK    7  A    between atoms: C8_17  and  C9_19
REMARK                            x       y       z     vdW  Elec       q    Type
REMARK                         _______ _______ _______ _____ _____    ______ ____
ROOT
ATOM      1  C2  ZMR A 466      -5.005  56.928 -11.362  0.00  0.00    +0.000 C 
ATOM      2  C3  ZMR A 466      -3.996  56.332 -12.017  0.00  0.00    +0.000 C 
ATOM      3  C4  ZMR A 466      -2.733  55.948 -11.307  0.00  0.00    +0.000 C 
ATOM      4  C5  ZMR A 466      -2.890  55.958  -9.829  0.00  0.00    +0.000 C 
ATOM      5  C6  ZMR A 466      -3.691  57.232  -9.426  0.00  0.00    +0.000 C 
ATOM      6  O6  ZMR A 466      -4.956  57.242 -10.081  0.00  0.00    +0.000 OA
ENDROOT
BRANCH   3   7
ATOM      7  NE  ZMR A 466      -2.196  54.673 -11.732  0.00  0.00    +0.000 NA
ATOM      8  CZ  ZMR A 466      -2.788  53.520 -11.434  0.00  0.00    +0.000 C 
ATOM      9  NH1 ZMR A 466      -3.834  53.469 -10.603  0.00  0.00    +0.000 NA
ATOM     10  NH2 ZMR A 466      -2.356  52.416 -12.038  0.00  0.00    +0.000 NA
ENDBRANCH   3   7
BRANCH   1  11
ATOM     11  C1  ZMR A 466      -6.252  57.259 -12.073  0.00  0.00    +0.000 C 
ATOM     12  O1A ZMR A 466      -6.200  57.300 -13.407  0.00  0.00    +0.000 OA
ATOM     13  O1B ZMR A 466      -7.231  57.484 -11.435  0.00  0.00    +0.000 OA
ENDBRANCH   1  11
BRANCH   5  14
ATOM     14  C7  ZMR A 466      -3.832  57.551  -7.945  0.00  0.00    +0.000 C 
ATOM     15  O7  ZMR A 466      -4.863  57.171  -8.050  0.00  0.00    +0.000 OA
BRANCH  14  16
ATOM     16  C8  ZMR A 466      -3.455  58.883  -7.552  0.00  0.00    +0.000 C 
ATOM     17  O8  ZMR A 466      -2.778  59.354  -8.720  0.00  0.00    +0.000 OA
BRANCH  16  18
ATOM     18  C9  ZMR A 466      -2.519  58.969  -6.348  0.00  0.00    +0.000 C 
ATOM     19  O9  ZMR A 466      -1.579  57.895  -6.377  0.00  0.00    +0.000 OA
ENDBRANCH  16  18
ENDBRANCH  14  16
ENDBRANCH   5  14
BRANCH   4  20
ATOM     20  N5  ZMR A 466      -1.589  55.998  -9.178  0.00  0.00    +0.000 NA
BRANCH  20  21
ATOM     21  C10 ZMR A 466      -0.972  54.922  -8.682  0.00  0.00    +0.000 C 
ATOM     22  O10 ZMR A 466       0.148  54.576  -9.002  0.00  0.00    +0.000 OA
ATOM     23  C11 ZMR A 466      -1.771  54.149  -7.653  0.00  0.00    +0.000 C 
ENDBRANCH  20  21
ENDBRANCH   4  20
TORSDOF 7
ENDMDL
MODEL 9
REMARK VINA RESULT:    -5.294      2.849      5.078
REMARK INTER + INTRA:          -8.675
REMARK INTER:                  -7.664
REMARK INTRA:                  -1.011
REMARK UNBOUND:                -1.215
REMARK  Name = obj01
REMARK  7 active torsions:
REMARK  status: ('A' for Active; 'I' for Inactive)
REMARK    1  A    between atoms: NE_1  and  C4_10
REMARK    2  A    between atoms: C1_5  and  C2_8
REMARK    3  A    between atoms: C5_11  and  N5_12
REMARK    4  A    between atoms: N5_12  and  C10_21
REMARK    5  A    between atoms: C6_13  and  C7_15
REMARK    6  A    between atoms: C7_15  and  C8_17
REMARK    7  A    between atoms: C8_17  and  C9_19
REMARK                            x       y       z     vdW  Elec       q    Type
REMARK                         _______ _______ _______ _____ _____    ______ ____
ROOT
ATOM      1  C2  ZMR A 466      -2.372  57.716  -7.905  0.00  0.00    +0.000 C 
ATOM      2  C3  ZMR A 466      -2.822  58.906  -8.336  0.00  0.00    +0.000 C 
ATOM      3  C4  ZMR A 466      -3.658  59.013  -9.575  0.00  0.00    +0.000 C 
ATOM      4  C5  ZMR A 466      -4.202  57.700 -10.007  0.00  0.00    +0.000 C 
ATOM      5  C6  ZMR A 466      -3.074  56.632  -9.881  0.00  0.00    +0.000 C 
ATOM      6  O6  ZMR A 466      -2.597  56.581  -8.539  0.00  0.00    +0.000 OA
ENDROOT
BRANCH   3   7
ATOM      7  NE  ZMR A 466      -4.733  59.975  -9.465  0.00  0.00    +0.000 NA
ATOM      8  CZ  ZMR A 466      -4.712  61.138 -10.110  0.00  0.00    +0.000 C 
ATOM      9  NH1 ZMR A 466      -3.629  61.542 -10.782  0.00  0.00    +0.000 NA
ATOM     10  NH2 ZMR A 466      -5.824  61.868 -10.129  0.00  0.00    +0.000 NA
ENDBRANCH   3   7
BRANCH   1  11
ATOM     11  C1  ZMR A 466      -1.586  57.631  -6.662  0.00  0.00    +0.000 C 
ATOM     12  O1A ZMR A 466      -1.766  58.600  -5.760  0.00  0.00    +0.000 OA
ATOM     13  O1B ZMR A 466      -0.830  56.723  -6.526  0.00  0.00    +0.000 OA
ENDBRANCH   1  11
BRANCH   5  14
ATOM     14  C7  ZMR A 466      -3.342  55.238 -10.427  0.00  0.00    +0.000 C 
ATOM     15  O7  ZMR A 466      -3.782  55.028  -9.436  0.00  0.00    +0.000 OA
BRANCH  14  16
ATOM     16  C8  ZMR A 466      -2.212  54.565 -11.012  0.00  0.00    +0.000 C 
ATOM     17  O8  ZMR A 466      -2.843  53.717 -11.976  0.00  0.00    +0.000 OA
BRANCH  16  18
ATOM     18  C9  ZMR A 466      -1.385  53.718 -10.047  0.00  0.00    +0.000 C 
ATOM     19  O9  ZMR A 466      -0.233  54.443  -9.619  0.00  0.00    +0.000 OA
ENDBRANCH  16  18
ENDBRANCH  14  16
ENDBRANCH   5  14
BRANCH   4  20
ATOM     20  N5  ZMR A 466      -4.636  57.758 -11.395  0.00  0.00    +0.000 NA
BRANCH  20  21
ATOM     21  C10 ZMR A 466      -5.884  57.499 -11.794  0.00  0.00    +0.000 C 
ATOM     22  O10 ZMR A 466      -6.847  57.506 -11.054  0.00  0.00    +0.000 OA
ATOM     23  C11 ZMR A 466      -6.031  57.209 -13.275  0.00  0.00    +0.000 C 
ENDBRANCH  20  21
ENDBRANCH   4  20
TORSDOF 7
ENDMDL
