MODEL 1
REMARK VINA RESULT:    -5.942      0.000      0.000
REMARK INTER + INTRA:          -9.581
REMARK INTER:                  -8.374
REMARK INTRA:                  -1.207
REMARK UNBOUND:                -1.207
REMARK  Name = obj01
REMARK  7 active torsions:
REMARK  status: ('A' for Active; 'I' for Inactive)
REMARK    1  A    between atoms: NE_1  and  C4_10
REMARK    2  A    between atoms: C1_5  and  C2_8
REMARK    3  A    between atoms: C5_11  and  N5_12
REMARK    4  A    between atoms: N5_12  and  C10_21
REMARK    5  A    between atoms: C6_13  and  C7_15
REMARK    6  A    between atoms: C7_15  and  C8_17
REMARK    7  A    between atoms: C8_17  and  C9_19
REMARK                            x       y       z     vdW  Elec       q    Type
REMARK                         _______ _______ _______ _____ _____    ______ ____
ROOT
ATOM      1  C2  ZMR A 466      -2.234  58.481  -7.566  0.00  0.00    +0.000 C 
ATOM      2  C3  ZMR A 466      -1.767  57.224  -7.485  0.00  0.00    +0.000 C 
ATOM      3  C4  ZMR A 466      -2.215  56.170  -8.451  0.00  0.00    +0.000 C 
ATOM      4  C5  ZMR A 466      -2.885  56.746  -9.646  0.00  0.00    +0.000 C 
ATOM      5  C6  ZMR A 466      -3.849  57.876  -9.176  0.00  0.00    +0.000 C 
ATOM      6  O6  ZMR A 466      -3.123  58.870  -8.459  0.00  0.00    +0.000 OA
ENDROOT
BRANCH   3   7
ATOM      7  NE  ZMR A 466      -1.153  55.280  -8.868  0.00  0.00    +0.000 NA
ATOM      8  CZ  ZMR A 466      -1.105  54.007  -8.486  0.00  0.00    +0.000 C 
ATOM      9  NH1 ZMR A 466      -1.959  53.520  -7.579  0.00  0.00    +0.000 NA
ATOM     10  NH2 ZMR A 466      -0.225  53.204  -9.078  0.00  0.00    +0.000 NA
ENDBRANCH   3   7
BRANCH   1  11
ATOM     11  C1  ZMR A 466      -1.747  59.510  -6.630  0.00  0.00    +0.000 C 
ATOM     12  O1A ZMR A 466      -2.655  60.104  -5.851  0.00  0.00    +0.000 OA
ATOM     13  O1B ZMR A 466      -0.586  59.768  -6.620  0.00  0.00    +0.000 OA
ENDBRANCH   1  11
BRANCH   5  14
ATOM     14  C7  ZMR A 466      -4.776  58.501 -10.207  0.00  0.00    +0.000 C 
ATOM     15  O7  ZMR A 466      -4.234  59.441  -9.997  0.00  0.00    +0.000 OA
BRANCH  14  16
ATOM     16  C8  ZMR A 466      -6.182  58.272 -10.007  0.00  0.00    +0.000 C 
ATOM     17  O8  ZMR A 466      -6.191  57.566  -8.763  0.00  0.00    +0.000 OA
BRANCH  16  18
ATOM     18  C9  ZMR A 466      -6.866  57.427 -11.081  0.00  0.00    +0.000 C 
ATOM     19  O9  ZMR A 466      -6.114  57.469 -12.293  0.00  0.00    +0.000 OA
ENDBRANCH  16  18
ENDBRANCH  14  16
ENDBRANCH   5  14
BRANCH   4  20
ATOM     20  N5  ZMR A 466      -3.662  55.726 -10.336  0.00  0.00    +0.000 NA
BRANCH  20  21
ATOM     21  C10 ZMR A 466      -3.366  55.265 -11.555  0.00  0.00    +0.000 C 
ATOM     22  O10 ZMR A 466      -3.302  55.964 -12.546  0.00  0.00    +0.000 OA
ATOM     23  C11 ZMR A 466      -3.088  53.777 -11.621  0.00  0.00    +0.000 C 
ENDBRANCH  20  21
ENDBRANCH   4  20
TORSDOF 7
ENDMDL
MODEL 2
REMARK VINA RESULT:    -5.880      2.529      4.722
REMARK INTER + INTRA:          -9.493
REMARK INTER:                  -8.491
REMARK INTRA:                  -1.003
REMARK UNBOUND:                -1.207
REMARK  Name = obj01
REMARK  7 active torsions:
REMARK  status: ('A' for Active; 'I' for Inactive)
REMARK    1  A    between atoms: NE_1  and  C4_10
REMARK    2  A    between atoms: C1_5  and  C2_8
REMARK    3  A    between atoms: C5_11  and  N5_12
REMARK    4  A    between atoms: N5_12  and  C10_21
REMARK    5  A    between atoms: C6_13  and  C7_15
REMARK    6  A    between atoms: C7_15  and  C8_17
REMARK    7  A    between atoms: C8_17  and  C9_19
REMARK                            x       y       z     vdW  Elec       q    Type
REMARK                         _______ _______ _______ _____ _____    ______ ____
ROOT
ATOM      1  C2  ZMR A 466      -2.066  58.039  -7.423  0.00  0.00    +0.000 C 
ATOM      2  C3  ZMR A 466      -3.111  58.519  -8.117  0.00  0.00    +0.000 C 
ATOM      3  C4  ZMR A 466      -3.937  57.621  -8.989  0.00  0.00    +0.000 C 
ATOM      4  C5  ZMR A 466      -3.705  56.182  -8.701  0.00  0.00    +0.000 C 
ATOM      5  C6  ZMR A 466      -2.174  55.955  -8.524  0.00  0.00    +0.000 C 
ATOM      6  O6  ZMR A 466      -1.674  56.780  -7.476  0.00  0.00    +0.000 OA
ENDROOT
BRANCH   3   7
ATOM      7  NE  ZMR A 466      -5.355  57.908  -8.934  0.00  0.00    +0.000 NA
ATOM      8  CZ  ZMR A 466      -6.035  58.323  -9.998  0.00  0.00    +0.000 C 
ATOM      9  NH1 ZMR A 466      -5.416  58.636 -11.142  0.00  0.00    +0.000 NA
ATOM     10  NH2 ZMR A 466      -7.363  58.358  -9.924  0.00  0.00    +0.000 NA
ENDBRANCH   3   7
BRANCH   1  11
ATOM     11  C1  ZMR A 466      -1.295  58.933  -6.542  0.00  0.00    +0.000 C 
ATOM     12  O1A ZMR A 466      -0.463  59.797  -7.128  0.00  0.00    +0.000 OA
ATOM     13  O1B ZMR A 466      -1.438  58.835  -5.364  0.00  0.00    +0.000 OA
ENDBRANCH   1  11
BRANCH   5  14
ATOM     14  C7  ZMR A 466      -1.673  54.525  -8.389  0.00  0.00    +0.000 C 
ATOM     15  O7  ZMR A 466      -1.416  54.804  -7.352  0.00  0.00    +0.000 OA
BRANCH  14  16
ATOM     16  C8  ZMR A 466      -0.749  54.085  -9.402  0.00  0.00    +0.000 C 
ATOM     17  O8  ZMR A 466       0.484  54.637  -8.933  0.00  0.00    +0.000 OA
BRANCH  16  18
ATOM     18  C9  ZMR A 466      -1.036  54.594 -10.813  0.00  0.00    +0.000 C 
ATOM     19  O9  ZMR A 466      -1.608  53.554 -11.605  0.00  0.00    +0.000 OA
ENDBRANCH  16  18
ENDBRANCH  14  16
ENDBRANCH   5  14
BRANCH   4  20
ATOM     20  N5  ZMR A 466      -4.175  55.358  -9.805  0.00  0.00    +0.000 NA
BRANCH  20  21
ATOM     21  C10 ZMR A 466      -5.059  54.366  -9.667  0.00  0.00    +0.000 C 
ATOM     22  O10 ZMR A 466      -6.236  54.536  -9.417  0.00  0.00    +0.000 OA
ATOM     23  C11 ZMR A 466      -4.490  52.976  -9.868  0.00  0.00    +0.000 C 
ENDBRANCH  20  21
ENDBRANCH   4  20
TORSDOF 7
ENDMDL
MODEL 3
REMARK VINA RESULT:    -5.652      3.027      4.785
REMARK INTER + INTRA:          -9.172
REMARK INTER:                  -8.018
REMARK INTRA:                  -1.154
REMARK UNBOUND:                -1.207
REMARK  Name = obj01
REMARK  7 active torsions:
REMARK  status: ('A' for Active; 'I' for Inactive)
REMARK    1  A    between atoms: NE_1  and  C4_10
REMARK    2  A    between atoms: C1_5  and  C2_8
REMARK    3  A    between atoms: C5_11  and  N5_12
REMARK    4  A    between atoms: N5_12  and  C10_21
REMARK    5  A    between atoms: C6_13  and  C7_15
REMARK    6  A    between atoms: C7_15  and  C8_17
REMARK    7  A    between atoms: C8_17  and  C9_19
REMARK                            x       y       z     vdW  Elec       q    Type
REMARK                         _______ _______ _______ _____ _____    ______ ____
ROOT
ATOM      1  C2  ZMR A 466      -2.250  55.374  -8.489  0.00  0.00    +0.000 C 
ATOM      2  C3  ZMR A 466      -1.914  56.520  -7.876  0.00  0.00    +0.000 C 
ATOM      3  C4  ZMR A 466      -2.669  57.788  -8.140  0.00  0.00    +0.000 C 
ATOM      4  C5  ZMR A 466      -3.970  57.542  -8.814  0.00  0.00    +0.000 C 
ATOM      5  C6  ZMR A 466      -3.754  56.480  -9.933  0.00  0.00    +0.000 C 
ATOM      6  O6  ZMR A 466      -3.225  55.281  -9.374  0.00  0.00    +0.000 OA
ENDROOT
BRANCH   3   7
ATOM      7  NE  ZMR A 466      -2.877  58.594  -6.957  0.00  0.00    +0.000 NA
ATOM      8  CZ  ZMR A 466      -2.350  59.808  -6.825  0.00  0.00    +0.000 C 
ATOM      9  NH1 ZMR A 466      -1.482  60.291  -7.720  0.00  0.00    +0.000 NA
ATOM     10  NH2 ZMR A 466      -2.759  60.567  -5.811  0.00  0.00    +0.000 NA
ENDBRANCH   3   7
BRANCH   1  11
ATOM     11  C1  ZMR A 466      -1.519  54.132  -8.182  0.00  0.00    +0.000 C 
ATOM     12  O1A ZMR A 466      -0.494  53.816  -8.977  0.00  0.00    +0.000 OA
ATOM     13  O1B ZMR A 466      -1.880  53.471  -7.260  0.00  0.00    +0.000 OA
ENDBRANCH   1  11
BRANCH   5  14
ATOM     14  C7  ZMR A 466      -4.911  56.187 -10.877  0.00  0.00    +0.000 C 
ATOM     15  O7  ZMR A 466      -4.976  55.215 -10.357  0.00  0.00    +0.000 OA
BRANCH  14  16
ATOM     16  C8  ZMR A 466      -4.643  56.383 -12.277  0.00  0.00    +0.000 C 
ATOM     17  O8  ZMR A 466      -3.443  57.161 -12.241  0.00  0.00    +0.000 OA
BRANCH  16  18
ATOM     18  C9  ZMR A 466      -5.722  57.141 -13.049  0.00  0.00    +0.000 C 
ATOM     19  O9  ZMR A 466      -6.818  57.450 -12.189  0.00  0.00    +0.000 OA
ENDBRANCH  16  18
ENDBRANCH  14  16
ENDBRANCH   5  14
BRANCH   4  20
ATOM     20  N5  ZMR A 466      -4.469  58.766  -9.423  0.00  0.00    +0.000 NA
BRANCH  20  21
ATOM     21  C10 ZMR A 466      -5.653  59.312  -9.131  0.00  0.00    +0.000 C 
ATOM     22  O10 ZMR A 466      -6.693  58.687  -9.079  0.00  0.00    +0.000 OA
ATOM     23  C11 ZMR A 466      -5.613  60.799  -8.840  0.00  0.00    +0.000 C 
ENDBRANCH  20  21
ENDBRANCH   4  20
TORSDOF 7
ENDMDL
MODEL 4
REMARK VINA RESULT:    -5.555      1.850      4.760
REMARK INTER + INTRA:          -9.036
REMARK INTER:                  -8.240
REMARK INTRA:                  -0.795
REMARK UNBOUND:                -1.207
REMARK  Name = obj01
REMARK  7 active torsions:
REMARK  status: ('A' for Active; 'I' for Inactive)
REMARK    1  A    between atoms: NE_1  and  C4_10
REMARK    2  A    between atoms: C1_5  and  C2_8
REMARK    3  A    between atoms: C5_11  and  N5_12
REMARK    4  A    between atoms: N5_12  and  C10_21
REMARK    5  A    between atoms: C6_13  and  C7_15
REMARK    6  A    between atoms: C7_15  and  C8_17
REMARK    7  A    between atoms: C8_17  and  C9_19
REMARK                            x       y       z     vdW  Elec       q    Type
REMARK                         _______ _______ _______ _____ _____    ______ ____
ROOT
ATOM      1  C2  ZMR A 466      -4.935  58.272  -9.335  0.00  0.00    +0.000 C 
ATOM      2  C3  ZMR A 466      -4.683  57.236 -10.152  0.00  0.00    +0.000 C 
ATOM      3  C4  ZMR A 466      -3.472  56.375  -9.957  0.00  0.00    +0.000 C 
ATOM      4  C5  ZMR A 466      -2.851  56.565  -8.620  0.00  0.00    +0.000 C 
ATOM      5  C6  ZMR A 466      -2.821  58.090  -8.302  0.00  0.00    +0.000 C 
ATOM      6  O6  ZMR A 466      -4.141  58.624  -8.342  0.00  0.00    +0.000 OA
ENDROOT
BRANCH   3   7
ATOM      7  NE  ZMR A 466      -3.721  54.968 -10.184  0.00  0.00    +0.000 NA
ATOM      8  CZ  ZMR A 466      -3.198  54.314 -11.218  0.00  0.00    +0.000 C 
ATOM      9  NH1 ZMR A 466      -2.531  54.956 -12.183  0.00  0.00    +0.000 NA
ATOM     10  NH2 ZMR A 466      -3.296  52.987 -11.239  0.00  0.00    +0.000 NA
ENDBRANCH   3   7
BRANCH   1  11
ATOM     11  C1  ZMR A 466      -6.153  59.078  -9.523  0.00  0.00    +0.000 C 
ATOM     12  O1A ZMR A 466      -6.021  60.406  -9.458  0.00  0.00    +0.000 OA
ATOM     13  O1B ZMR A 466      -7.186  58.517  -9.708  0.00  0.00    +0.000 OA
ENDBRANCH   1  11
BRANCH   5  14
ATOM     14  C7  ZMR A 466      -2.075  58.548  -7.058  0.00  0.00    +0.000 C 
ATOM     15  O7  ZMR A 466      -2.988  58.257  -6.509  0.00  0.00    +0.000 OA
BRANCH  14  16
ATOM     16  C8  ZMR A 466      -1.507  59.868  -7.117  0.00  0.00    +0.000 C 
ATOM     17  O8  ZMR A 466      -0.222  59.662  -6.524  0.00  0.00    +0.000 OA
BRANCH  16  18
ATOM     18  C9  ZMR A 466      -2.264  60.942  -6.338  0.00  0.00    +0.000 C 
ATOM     19  O9  ZMR A 466      -1.596  61.223  -5.109  0.00  0.00    +0.000 OA
ENDBRANCH  16  18
ENDBRANCH  14  16
ENDBRANCH   5  14
BRANCH   4  20
ATOM     20  N5  ZMR A 466      -1.486  56.060  -8.615  0.00  0.00    +0.000 NA
BRANCH  20  21
ATOM     21  C10 ZMR A 466      -1.165  54.790  -8.350  0.00  0.00    +0.000 C 
ATOM     22  O10 ZMR A 466      -1.705  54.119  -7.494  0.00  0.00    +0.000 OA
ATOM     23  C11 ZMR A 466      -0.068  54.217  -9.224  0.00  0.00    +0.000 C 
ENDBRANCH  20  21
ENDBRANCH   4  20
TORSDOF 7
ENDMDL
MODEL 5
REMARK VINA RESULT:    -5.437      2.328      4.669
REMARK INTER + INTRA:          -8.868
REMARK INTER:                  -7.802
REMARK INTRA:                  -1.066
REMARK UNBOUND:                -1.207
REMARK  Name = obj01
REMARK  7 active torsions:
REMARK  status: ('A' for Active; 'I' for Inactive)
REMARK    1  A    between atoms: NE_1  and  C4_10
REMARK    2  A    between atoms: C1_5  and  C2_8
REMARK    3  A    between atoms: C5_11  and  N5_12
REMARK    4  A    between atoms: N5_12  and  C10_21
REMARK    5  A    between atoms: C6_13  and  C7_15
REMARK    6  A    between atoms: C7_15  and  C8_17
REMARK    7  A    between atoms: C8_17  and  C9_19
REMARK                            x       y       z     vdW  Elec       q    Type
REMARK                         _______ _______ _______ _____ _____    ______ ____
ROOT
ATOM      1  C2  ZMR A 466      -4.956  53.789  -9.503  0.00  0.00    +0.000 C 
ATOM      2  C3  ZMR A 466      -3.650  53.713  -9.806  0.00  0.00    +0.000 C 
ATOM      3  C4  ZMR A 466      -2.761  54.915  -9.699  0.00  0.00    +0.000 C 
ATOM      4  C5  ZMR A 466      -3.381  56.009  -8.908  0.00  0.00    +0.000 C 
ATOM      5  C6  ZMR A 466      -4.874  56.141  -9.332  0.00  0.00    +0.000 C 
ATOM      6  O6  ZMR A 466      -5.552  54.905  -9.127  0.00  0.00    +0.000 OA
ENDROOT
BRANCH   3   7
ATOM      7  NE  ZMR A 466      -1.446  54.616  -9.173  0.00  0.00    +0.000 NA
ATOM      8  CZ  ZMR A 466      -0.386  54.463  -9.962  0.00  0.00    +0.000 C 
ATOM      9  NH1 ZMR A 466      -0.507  54.435 -11.294  0.00  0.00    +0.000 NA
ATOM     10  NH2 ZMR A 466       0.817  54.404  -9.396  0.00  0.00    +0.000 NA
ENDBRANCH   3   7
BRANCH   1  11
ATOM     11  C1  ZMR A 466      -5.801  52.584  -9.576  0.00  0.00    +0.000 C 
ATOM     12  O1A ZMR A 466      -7.122  52.760  -9.490  0.00  0.00    +0.000 OA
ATOM     13  O1B ZMR A 466      -5.273  51.524  -9.695  0.00  0.00    +0.000 OA
ENDBRANCH   1  11
BRANCH   5  14
ATOM     14  C7  ZMR A 466      -5.675  57.310  -8.780  0.00  0.00    +0.000 C 
ATOM     15  O7  ZMR A 466      -6.161  56.560  -8.132  0.00  0.00    +0.000 OA
BRANCH  14  16
ATOM     16  C8  ZMR A 466      -6.331  58.138  -9.757  0.00  0.00    +0.000 C 
ATOM     17  O8  ZMR A 466      -6.035  57.448 -10.974  0.00  0.00    +0.000 OA
BRANCH  16  18
ATOM     18  C9  ZMR A 466      -5.820  59.575  -9.845  0.00  0.00    +0.000 C 
ATOM     19  O9  ZMR A 466      -4.762  59.664 -10.799  0.00  0.00    +0.000 OA
ENDBRANCH  16  18
ENDBRANCH  14  16
ENDBRANCH   5  14
BRANCH   4  20
ATOM     20  N5  ZMR A 466      -2.707  57.273  -9.169  0.00  0.00    +0.000 NA
BRANCH  20  21
ATOM     21  C10 ZMR A 466      -2.374  58.148  -8.216  0.00  0.00    +0.000 C 
ATOM     22  O10 ZMR A 466      -2.657  59.329  -8.252  0.00  0.00    +0.000 OA
ATOM     23  C11 ZMR A 466      -1.617  57.554  -7.045  0.00  0.00    +0.000 C 
ENDBRANCH  20  21
ENDBRANCH   4  20
TORSDOF 7
ENDMDL
MODEL 6
REMARK VINA RESULT:    -5.387      1.500      1.899
REMARK INTER + INTRA:          -8.799
REMARK INTER:                  -7.747
REMARK INTRA:                  -1.051
REMARK UNBOUND:                -1.207
REMARK  Name = obj01
REMARK  7 active torsions:
REMARK  status: ('A' for Active; 'I' for Inactive)
REMARK    1  A    between atoms: NE_1  and  C4_10
REMARK    2  A    between atoms: C1_5  and  C2_8
REMARK    3  A    between atoms: C5_11  and  N5_12
REMARK    4  A    between atoms: N5_12  and  C10_21
REMARK    5  A    between atoms: C6_13  and  C7_15
REMARK    6  A    between atoms: C7_15  and  C8_17
REMARK    7  A    between atoms: C8_17  and  C9_19
REMARK                            x       y       z     vdW  Elec       q    Type
REMARK                         _______ _______ _______ _____ _____    ______ ____
ROOT
ATOM      1  C2  ZMR A 466      -2.155  58.057  -7.613  0.00  0.00    +0.000 C 
ATOM      2  C3  ZMR A 466      -2.112  56.737  -7.858  0.00  0.00    +0.000 C 
ATOM      3  C4  ZMR A 466      -2.828  56.145  -9.034  0.00  0.00    +0.000 C 
ATOM      4  C5  ZMR A 466      -3.231  57.174 -10.028  0.00  0.00    +0.000 C 
ATOM      5  C6  ZMR A 466      -3.809  58.401  -9.261  0.00  0.00    +0.000 C 
ATOM      6  O6  ZMR A 466      -2.839  58.911  -8.351  0.00  0.00    +0.000 OA
ENDROOT
BRANCH   3   7
ATOM      7  NE  ZMR A 466      -2.084  55.094  -9.694  0.00  0.00    +0.000 NA
ATOM      8  CZ  ZMR A 466      -2.627  53.915  -9.983  0.00  0.00    +0.000 C 
ATOM      9  NH1 ZMR A 466      -3.849  53.587  -9.549  0.00  0.00    +0.000 NA
ATOM     10  NH2 ZMR A 466      -1.952  53.087 -10.775  0.00  0.00    +0.000 NA
ENDBRANCH   3   7
BRANCH   1  11
ATOM     11  C1  ZMR A 466      -1.410  58.620  -6.474  0.00  0.00    +0.000 C 
ATOM     12  O1A ZMR A 466      -0.470  59.528  -6.749  0.00  0.00    +0.000 OA
ATOM     13  O1B ZMR A 466      -1.668  58.235  -5.378  0.00  0.00    +0.000 OA
ENDBRANCH   1  11
BRANCH   5  14
ATOM     14  C7  ZMR A 466      -4.447  59.517 -10.073  0.00  0.00    +0.000 C 
ATOM     15  O7  ZMR A 466      -3.542  60.098  -9.825  0.00  0.00    +0.000 OA
BRANCH  14  16
ATOM     16  C8  ZMR A 466      -5.798  59.860  -9.715  0.00  0.00    +0.000 C 
ATOM     17  O8  ZMR A 466      -5.592  60.798  -8.655  0.00  0.00    +0.000 OA
BRANCH  16  18
ATOM     18  C9  ZMR A 466      -6.657  58.700  -9.214  0.00  0.00    +0.000 C 
ATOM     19  O9  ZMR A 466      -7.266  58.026 -10.315  0.00  0.00    +0.000 OA
ENDBRANCH  16  18
ENDBRANCH  14  16
ENDBRANCH   5  14
BRANCH   4  20
ATOM     20  N5  ZMR A 466      -4.259  56.651 -10.915  0.00  0.00    +0.000 NA
BRANCH  20  21
ATOM     21  C10 ZMR A 466      -4.123  56.566 -12.242  0.00  0.00    +0.000 C 
ATOM     22  O10 ZMR A 466      -3.215  55.975 -12.792  0.00  0.00    +0.000 OA
ATOM     23  C11 ZMR A 466      -5.213  57.253 -13.038  0.00  0.00    +0.000 C 
ENDBRANCH  20  21
ENDBRANCH   4  20
TORSDOF 7
ENDMDL
MODEL 7
REMARK VINA RESULT:    -5.315      1.877      4.787
REMARK INTER + INTRA:          -8.698
REMARK INTER:                  -8.551
REMARK INTRA:                  -0.147
REMARK UNBOUND:                -1.207
REMARK  Name = obj01
REMARK  7 active torsions:
REMARK  status: ('A' for Active; 'I' for Inactive)
REMARK    1  A    between atoms: NE_1  and  C4_10
REMARK    2  A    between atoms: C1_5  and  C2_8
REMARK    3  A    between atoms: C5_11  and  N5_12
REMARK    4  A    between atoms: N5_12  and  C10_21
REMARK    5  A    between atoms: C6_13  and  C7_15
REMARK    6  A    between atoms: C7_15  and  C8_17
REMARK    7  A    between atoms: C8_17  and  C9_19
REMARK                            x       y       z     vdW  Elec       q    Type
REMARK                         _______ _______ _______ _____ _____    ______ ____
ROOT
ATOM      1  C2  ZMR A 466      -4.980  56.991 -11.341  0.00  0.00    +0.000 C 
ATOM      2  C3  ZMR A 466      -3.960  56.398 -11.984  0.00  0.00    +0.000 C 
ATOM      3  C4  ZMR A 466      -2.712  56.003 -11.254  0.00  0.00    +0.000 C 
ATOM      4  C5  ZMR A 466      -2.896  56.001  -9.779  0.00  0.00    +0.000 C 
ATOM      5  C6  ZMR A 466      -3.700  57.274  -9.379  0.00  0.00    +0.000 C 
ATOM      6  O6  ZMR A 466      -4.953  57.294 -10.058  0.00  0.00    +0.000 OA
ENDROOT
BRANCH   3   7
ATOM      7  NE  ZMR A 466      -2.171  54.731 -11.681  0.00  0.00    +0.000 NA
ATOM      8  CZ  ZMR A 466      -2.767  53.576 -11.397  0.00  0.00    +0.000 C 
ATOM      9  NH1 ZMR A 466      -3.823  53.521 -10.579  0.00  0.00    +0.000 NA
ATOM     10  NH2 ZMR A 466      -2.329  52.476 -12.003  0.00  0.00    +0.000 NA
ENDBRANCH   3   7
BRANCH   1  11
ATOM     11  C1  ZMR A 466      -6.213  57.332 -12.073  0.00  0.00    +0.000 C 
ATOM     12  O1A ZMR A 466      -6.121  57.451 -13.399  0.00  0.00    +0.000 OA
ATOM     13  O1B ZMR A 466      -7.216  57.496 -11.454  0.00  0.00    +0.000 OA
ENDBRANCH   1  11
BRANCH   5  14
ATOM     14  C7  ZMR A 466      -3.867  57.580  -7.899  0.00  0.00    +0.000 C 
ATOM     15  O7  ZMR A 466      -4.861  57.111  -8.002  0.00  0.00    +0.000 OA
BRANCH  14  16
ATOM     16  C8  ZMR A 466      -3.609  58.940  -7.506  0.00  0.00    +0.000 C 
ATOM     17  O8  ZMR A 466      -2.751  59.392  -8.558  0.00  0.00    +0.000 OA
BRANCH  16  18
ATOM     18  C9  ZMR A 466      -2.904  59.110  -6.162  0.00  0.00    +0.000 C 
ATOM     19  O9  ZMR A 466      -1.785  58.229  -6.077  0.00  0.00    +0.000 OA
ENDBRANCH  16  18
ENDBRANCH  14  16
ENDBRANCH   5  14
BRANCH   4  20
ATOM     20  N5  ZMR A 466      -1.606  56.032  -9.104  0.00  0.00    +0.000 NA
BRANCH  20  21
ATOM     21  C10 ZMR A 466      -0.983  54.944  -8.642  0.00  0.00    +0.000 C 
ATOM     22  O10 ZMR A 466       0.139  54.615  -8.971  0.00  0.00    +0.000 OA
ATOM     23  C11 ZMR A 466      -1.778  54.135  -7.638  0.00  0.00    +0.000 C 
ENDBRANCH  20  21
ENDBRANCH   4  20
TORSDOF 7
ENDMDL
MODEL 8
REMARK VINA RESULT:    -5.309      2.832      5.038
REMARK INTER + INTRA:          -8.688
REMARK INTER:                  -7.675
REMARK INTRA:                  -1.013
REMARK UNBOUND:                -1.207
REMARK  Name = obj01
REMARK  7 active torsions:
REMARK  status: ('A' for Active; 'I' for Inactive)
REMARK    1  A    between atoms: NE_1  and  C4_10
REMARK    2  A    between atoms: C1_5  and  C2_8
REMARK    3  A    between atoms: C5_11  and  N5_12
REMARK    4  A    between atoms: N5_12  and  C10_21
REMARK    5  A    between atoms: C6_13  and  C7_15
REMARK    6  A    between atoms: C7_15  and  C8_17
REMARK    7  A    between atoms: C8_17  and  C9_19
REMARK                            x       y       z     vdW  Elec       q    Type
REMARK                         _______ _______ _______ _____ _____    ______ ____
ROOT
ATOM      1  C2  ZMR A 466      -2.402  57.670  -7.953  0.00  0.00    +0.000 C 
ATOM      2  C3  ZMR A 466      -2.836  58.872  -8.367  0.00  0.00    +0.000 C 
ATOM      3  C4  ZMR A 466      -3.681  59.006  -9.598  0.00  0.00    +0.000 C 
ATOM      4  C5  ZMR A 466      -4.249  57.706 -10.039  0.00  0.00    +0.000 C 
ATOM      5  C6  ZMR A 466      -3.138  56.619  -9.934  0.00  0.00    +0.000 C 
ATOM      6  O6  ZMR A 466      -2.651  56.546  -8.597  0.00  0.00    +0.000 OA
ENDROOT
BRANCH   3   7
ATOM      7  NE  ZMR A 466      -4.740  59.983  -9.468  0.00  0.00    +0.000 NA
ATOM      8  CZ  ZMR A 466      -4.722  61.140 -10.124  0.00  0.00    +0.000 C 
ATOM      9  NH1 ZMR A 466      -3.652  61.522 -10.831  0.00  0.00    +0.000 NA
ATOM     10  NH2 ZMR A 466      -5.824  61.884 -10.121  0.00  0.00    +0.000 NA
ENDBRANCH   3   7
BRANCH   1  11
ATOM     11  C1  ZMR A 466      -1.607  57.559  -6.718  0.00  0.00    +0.000 C 
ATOM     12  O1A ZMR A 466      -1.719  58.551  -5.830  0.00  0.00    +0.000 OA
ATOM     13  O1B ZMR A 466      -0.902  56.611  -6.576  0.00  0.00    +0.000 OA
ENDBRANCH   1  11
BRANCH   5  14
ATOM     14  C7  ZMR A 466      -3.433  55.236 -10.493  0.00  0.00    +0.000 C 
ATOM     15  O7  ZMR A 466      -3.873  55.024  -9.503  0.00  0.00    +0.000 OA
BRANCH  14  16
ATOM     16  C8  ZMR A 466      -2.317  54.549 -11.088  0.00  0.00    +0.000 C 
ATOM     17  O8  ZMR A 466      -2.957  53.781 -12.111  0.00  0.00    +0.000 OA
BRANCH  16  18
ATOM     18  C9  ZMR A 466      -1.549  53.617 -10.153  0.00  0.00    +0.000 C 
ATOM     19  O9  ZMR A 466      -0.377  54.267  -9.663  0.00  0.00    +0.000 OA
ENDBRANCH  16  18
ENDBRANCH  14  16
ENDBRANCH   5  14
BRANCH   4  20
ATOM     20  N5  ZMR A 466      -4.694  57.786 -11.422  0.00  0.00    +0.000 NA
BRANCH  20  21
ATOM     21  C10 ZMR A 466      -5.932  57.483 -11.823  0.00  0.00    +0.000 C 
ATOM     22  O10 ZMR A 466      -6.887  57.409 -11.076  0.00  0.00    +0.000 OA
ATOM     23  C11 ZMR A 466      -6.078  57.250 -13.314  0.00  0.00    +0.000 C 
ENDBRANCH  20  21
ENDBRANCH   4  20
TORSDOF 7
ENDMDL
MODEL 9
REMARK VINA RESULT:    -5.182      3.075      5.785
REMARK INTER + INTRA:          -8.510
REMARK INTER:                  -8.238
REMARK INTRA:                  -0.272
REMARK UNBOUND:                -1.207
REMARK  Name = obj01
REMARK  7 active torsions:
REMARK  status: ('A' for Active; 'I' for Inactive)
REMARK    1  A    between atoms: NE_1  and  C4_10
REMARK    2  A    between atoms: C1_5  and  C2_8
REMARK    3  A    between atoms: C5_11  and  N5_12
REMARK    4  A    between atoms: N5_12  and  C10_21
REMARK    5  A    between atoms: C6_13  and  C7_15
REMARK    6  A    between atoms: C7_15  and  C8_17
REMARK    7  A    between atoms: C8_17  and  C9_19
REMARK                            x       y       z     vdW  Elec       q    Type
REMARK                         _______ _______ _______ _____ _____    ______ ____
ROOT
ATOM      1  C2  ZMR A 466      -4.219  55.310  -9.573  0.00  0.00    +0.000 C 
ATOM      2  C3  ZMR A 466      -5.399  55.612 -10.140  0.00  0.00    +0.000 C 
ATOM      3  C4  ZMR A 466      -5.902  57.024 -10.170  0.00  0.00    +0.000 C 
ATOM      4  C5  ZMR A 466      -4.836  58.012  -9.865  0.00  0.00    +0.000 C 
ATOM      5  C6  ZMR A 466      -3.995  57.477  -8.668  0.00  0.00    +0.000 C 
ATOM      6  O6  ZMR A 466      -3.445  56.203  -8.987  0.00  0.00    +0.000 OA
ENDROOT
BRANCH   3   7
ATOM      7  NE  ZMR A 466      -6.555  57.377 -11.412  0.00  0.00    +0.000 NA
ATOM      8  CZ  ZMR A 466      -5.939  57.287 -12.587  0.00  0.00    +0.000 C 
ATOM      9  NH1 ZMR A 466      -4.635  57.001 -12.669  0.00  0.00    +0.000 NA
ATOM     10  NH2 ZMR A 466      -6.667  57.423 -13.693  0.00  0.00    +0.000 NA
ENDBRANCH   3   7
BRANCH   1  11
ATOM     11  C1  ZMR A 466      -3.727  53.922  -9.592  0.00  0.00    +0.000 C 
ATOM     12  O1A ZMR A 466      -4.630  52.957  -9.785  0.00  0.00    +0.000 OA
ATOM     13  O1B ZMR A 466      -2.565  53.726  -9.424  0.00  0.00    +0.000 OA
ENDBRANCH   1  11
BRANCH   5  14
ATOM     14  C7  ZMR A 466      -2.946  58.397  -8.062  0.00  0.00    +0.000 C 
ATOM     15  O7  ZMR A 466      -2.214  57.638  -8.390  0.00  0.00    +0.000 OA
BRANCH  14  16
ATOM     16  C8  ZMR A 466      -3.184  58.812  -6.704  0.00  0.00    +0.000 C 
ATOM     17  O8  ZMR A 466      -3.385  60.220  -6.859  0.00  0.00    +0.000 OA
BRANCH  16  18
ATOM     18  C9  ZMR A 466      -2.032  58.563  -5.733  0.00  0.00    +0.000 C 
ATOM     19  O9  ZMR A 466      -1.116  59.656  -5.763  0.00  0.00    +0.000 OA
ENDBRANCH  16  18
ENDBRANCH  14  16
ENDBRANCH   5  14
BRANCH   4  20
ATOM     20  N5  ZMR A 466      -5.418  59.293  -9.492  0.00  0.00    +0.000 NA
BRANCH  20  21
ATOM     21  C10 ZMR A 466      -5.130  60.446 -10.104  0.00  0.00    +0.000 C 
ATOM     22  O10 ZMR A 466      -5.593  61.520  -9.776  0.00  0.00    +0.000 OA
ATOM     23  C11 ZMR A 466      -4.147  60.329 -11.251  0.00  0.00    +0.000 C 
ENDBRANCH  20  21
ENDBRANCH   4  20
TORSDOF 7
ENDMDL
