REMARK  Name = obj01
REMARK  7 active torsions:
REMARK  status: ('A' for Active; 'I' for Inactive)
REMARK    1  A    between atoms: NE_1  and  C4_10
REMARK    2  A    between atoms: C1_5  and  C2_8
REMARK    3  A    between atoms: C5_11  and  N5_12
REMARK    4  A    between atoms: N5_12  and  C10_21
REMARK    5  A    between atoms: C6_13  and  C7_15
REMARK    6  A    between atoms: C7_15  and  C8_17
REMARK    7  A    between atoms: C8_17  and  C9_19
REMARK                            x       y       z     vdW  Elec       q    Type
REMARK                         _______ _______ _______ _____ _____    ______ ____
ROOT
ATOM      1  C2  ZMR A 466      -2.330  57.401  -6.798  0.00  0.00    +0.000 C 
ATOM      2  C3  ZMR A 466      -1.468  56.385  -6.967  0.00  0.00    +0.000 C 
ATOM      3  C4  ZMR A 466      -1.502  55.541  -8.205  0.00  0.00    +0.000 C 
ATOM      4  C5  ZMR A 466      -2.290  56.169  -9.297  0.00  0.00    +0.000 C 
ATOM      5  C6  ZMR A 466      -3.594  56.764  -8.686  0.00  0.00    +0.000 C 
ATOM      6  O6  ZMR A 466      -3.271  57.709  -7.670  0.00  0.00    +0.000 OA
ENDROOT
BRANCH   3   7
ATOM      7  NE  ZMR A 466      -0.189  55.181  -8.695  0.00  0.00    +0.000 NA
ATOM      8  CZ  ZMR A 466       0.043  54.030  -9.320  0.00  0.00    +0.000 C 
ATOM      9  NH1 ZMR A 466      -0.896  53.081  -9.402  0.00  0.00    +0.000 NA
ATOM     10  NH2 ZMR A 466       1.216  53.867  -9.926  0.00  0.00    +0.000 NA
ENDBRANCH   3   7
BRANCH   1  11
ATOM     11  C1  ZMR A 466      -2.250  58.242  -5.591  0.00  0.00    +0.000 C 
ATOM     12  O1A ZMR A 466      -3.172  59.198  -5.452  0.00  0.00    +0.000 OA
ATOM     13  O1B ZMR A 466      -1.372  58.041  -4.813  0.00  0.00    +0.000 OA
ENDBRANCH   1  11
BRANCH   5  14
ATOM     14  C7  ZMR A 466      -4.646  57.312  -9.638  0.00  0.00    +0.000 C 
ATOM     15  O7  ZMR A 466      -3.818  57.892 -10.082  0.00  0.00    +0.000 OA
BRANCH  14  16
ATOM     16  C8  ZMR A 466      -5.827  57.857  -9.022  0.00  0.00    +0.000 C 
ATOM     17  O8  ZMR A 466      -6.401  56.698  -8.411  0.00  0.00    +0.000 OA
BRANCH  16  18
ATOM     18  C9  ZMR A 466      -6.836  58.483  -9.983  0.00  0.00    +0.000 C 
ATOM     19  O9  ZMR A 466      -7.439  57.473 -10.791  0.00  0.00    +0.000 OA
ENDBRANCH  16  18
ENDBRANCH  14  16
ENDBRANCH   5  14
BRANCH   4  20
ATOM     20  N5  ZMR A 466      -2.654  55.178 -10.299  0.00  0.00    +0.000 NA
BRANCH  20  21
ATOM     21  C10 ZMR A 466      -2.114  55.123 -11.520  0.00  0.00    +0.000 C 
ATOM     22  O10 ZMR A 466      -1.380  55.977 -11.975  0.00  0.00    +0.000 OA
ATOM     23  C11 ZMR A 466      -2.468  53.883 -12.316  0.00  0.00    +0.000 C 
ENDBRANCH  20  21
ENDBRANCH   4  20
TORSDOF 7
